$ Spice netlist generated by v2lvs
$ v2016.4_38.25    Tue Jan 3 14:53:59 PST 2017
.INCLUDE "/home/aa/users/cs199-apt/cadence/digital_ldo_integration/post_layout/spice_files/DigitalLDOLogiclvsv2.sp" 
.INCLUDE "/home/aa/users/cs199-apt/cadence/digital_ldo_integration/post_layout/spice_files/inverter.pex.netlist" 
.INCLUDE "/home/aa/users/cs199-apt/cadence/digital_ldo_integration/post_layout/spice_files/pass_transistors.pex.netlist" 
.INCLUDE "/home/aa/users/cs199-apt/cadence/digital_ldo_integration/post_layout/spice_files/rs_latch_new.pex.netlist" 
.INCLUDE "/home/aa/users/cs199-apt/cadence/digital_ldo_integration/post_layout/spice_files/strong_arm.pex.netlist" 
*.INCLUDE "/home/ff/eecs251b/sky130/sky130A/libs.ref/sky130_fd_sc_hd/spice/sky130_fd_sc_hd.spice" 
.INCLUDE "/home/aa/users/cs199-apt/Downloads/sky130_fd_sc_hd.spice"
.include "/home/ff/eecs251b/sky130/sky130_conv.spice"
*.BUSDELIMITER [ 

.SUBCKT digital_ldo_top VDD VSS clk ldotop_rst ldotop_vref ldotop_test_in[31] 
+ ldotop_test_in[30] ldotop_test_in[29] ldotop_test_in[28] ldotop_test_in[27] 
+ ldotop_test_in[26] ldotop_test_in[25] ldotop_test_in[24] ldotop_test_in[23] 
+ ldotop_test_in[22] ldotop_test_in[21] ldotop_test_in[20] ldotop_test_in[19] 
+ ldotop_test_in[18] ldotop_test_in[17] ldotop_test_in[16] ldotop_test_in[15] 
+ ldotop_test_in[14] ldotop_test_in[13] ldotop_test_in[12] ldotop_test_in[11] 
+ ldotop_test_in[10] ldotop_test_in[9] ldotop_test_in[8] ldotop_test_in[7] 
+ ldotop_test_in[6] ldotop_test_in[5] ldotop_test_in[4] ldotop_test_in[3] 
+ ldotop_test_in[2] ldotop_test_in[1] ldotop_test_in[0] ldotop_en ldotop_vout 
XDigitalLDOLogic out[31] out[30] out[29] out[28] out[27] out[26] out[25] 
+ out[24] out[23] out[22] out[21] out[20] out[19] out[18] out[17] out[16] 
+ out[15] out[14] out[13] out[12] out[11] out[10] out[9] out[8] out[7] out[6] 
+ out[5] out[4] out[3] out[2] out[1] out[0] clk fake_output ldotop_rst VSS VDD 
+ DigitalLDOLogic 
Xinverter_clk clk_inv clk VSS VDD inverter 
Xinverter_fake fake_output rs_out_p VSS VDD inverter 
Xinverter_real real_output rs_out_n VSS VDD inverter 
Xpass_transistors pass_in[22] pass_in[12] pass_in[29] pass_in[16] pass_in[6] 
+ pass_in[23] pass_in[13] pass_in[0] pass_in[17] pass_in[7] pass_in[30] 
+ pass_in[24] pass_in[14] pass_in[1] pass_in[8] pass_in[18] pass_in[31] 
+ pass_in[25] pass_in[15] pass_in[2] pass_in[9] pass_in[19] VDD pass_in[3] 
+ pass_in[26] ldotop_vout pass_in[10] pass_in[20] pass_in[4] pass_in[27] 
+ pass_in[11] pass_in[21] pass_in[5] pass_in[28] pass_transistors 
Xrs_latch_new rs_out_n output_n VSS output_p rs_out_p VDD rs_latch_new 
Xstrong_arm VDD ldotop_vout VSS output_n ldotop_vref clk_inv output_p 
+ strong_arm 
Xg691__2398 out[26] ldotop_test_in[26] ldotop_en VSS VSS VDD VDD pass_in[26] 
+ sky130_fd_sc_hd__mux2_1 
Xg692__5107 out[2] ldotop_test_in[2] ldotop_en VSS VSS VDD VDD pass_in[2] 
+ sky130_fd_sc_hd__mux2_2 
Xg693__6260 out[4] ldotop_test_in[4] ldotop_en VSS VSS VDD VDD pass_in[4] 
+ sky130_fd_sc_hd__mux2_1 
Xg694__4319 out[27] ldotop_test_in[27] ldotop_en VSS VSS VDD VDD pass_in[27] 
+ sky130_fd_sc_hd__mux2_1 
Xg695__8428 out[17] ldotop_test_in[17] ldotop_en VSS VSS VDD VDD pass_in[17] 
+ sky130_fd_sc_hd__mux2_1 
Xg696__5526 out[18] ldotop_test_in[18] ldotop_en VSS VSS VDD VDD pass_in[18] 
+ sky130_fd_sc_hd__mux2_2 
Xg697__6783 out[22] ldotop_test_in[22] ldotop_en VSS VSS VDD VDD pass_in[22] 
+ sky130_fd_sc_hd__mux2_1 
Xg698__3680 out[29] ldotop_test_in[29] ldotop_en VSS VSS VDD VDD pass_in[29] 
+ sky130_fd_sc_hd__mux2_1 
Xg699__1617 out[9] ldotop_test_in[9] ldotop_en VSS VSS VDD VDD pass_in[9] 
+ sky130_fd_sc_hd__mux2_1 
Xg700__2802 out[19] ldotop_test_in[19] ldotop_en VSS VSS VDD VDD pass_in[19] 
+ sky130_fd_sc_hd__mux2_1 
Xg701__1705 out[21] ldotop_test_in[21] ldotop_en VSS VSS VDD VDD pass_in[21] 
+ sky130_fd_sc_hd__mux2_1 
Xg702__5122 out[20] ldotop_test_in[20] ldotop_en VSS VSS VDD VDD pass_in[20] 
+ sky130_fd_sc_hd__mux2_1 
Xg703__8246 out[10] ldotop_test_in[10] ldotop_en VSS VSS VDD VDD pass_in[10] 
+ sky130_fd_sc_hd__mux2_1 
Xg704__7098 out[30] ldotop_test_in[30] ldotop_en VSS VSS VDD VDD pass_in[30] 
+ sky130_fd_sc_hd__mux2_1 
Xg705__6131 out[5] ldotop_test_in[5] ldotop_en VSS VSS VDD VDD pass_in[5] 
+ sky130_fd_sc_hd__mux2_1 
Xg706__1881 out[0] ldotop_test_in[0] ldotop_en VSS VSS VDD VDD pass_in[0] 
+ sky130_fd_sc_hd__mux2_1 
Xg707__5115 out[23] ldotop_test_in[23] ldotop_en VSS VSS VDD VDD pass_in[23] 
+ sky130_fd_sc_hd__mux2_1 
Xg708__7482 out[6] ldotop_test_in[6] ldotop_en VSS VSS VDD VDD pass_in[6] 
+ sky130_fd_sc_hd__mux2_1 
Xg709__4733 out[12] ldotop_test_in[12] ldotop_en VSS VSS VDD VDD pass_in[12] 
+ sky130_fd_sc_hd__mux2_1 
Xg710__6161 out[31] ldotop_test_in[31] ldotop_en VSS VSS VDD VDD pass_in[31] 
+ sky130_fd_sc_hd__mux2_1 
Xg711__9315 out[1] ldotop_test_in[1] ldotop_en VSS VSS VDD VDD pass_in[1] 
+ sky130_fd_sc_hd__mux2_2 
Xg712__9945 out[25] ldotop_test_in[25] ldotop_en VSS VSS VDD VDD pass_in[25] 
+ sky130_fd_sc_hd__mux2_1 
Xg713__2883 out[13] ldotop_test_in[13] ldotop_en VSS VSS VDD VDD pass_in[13] 
+ sky130_fd_sc_hd__mux2_1 
Xg714__2346 out[3] ldotop_test_in[3] ldotop_en VSS VSS VDD VDD pass_in[3] 
+ sky130_fd_sc_hd__mux2_1 
Xg715__1666 out[28] ldotop_test_in[28] ldotop_en VSS VSS VDD VDD pass_in[28] 
+ sky130_fd_sc_hd__mux2_1 
Xg716__7410 out[14] ldotop_test_in[14] ldotop_en VSS VSS VDD VDD pass_in[14] 
+ sky130_fd_sc_hd__mux2_1 
Xg717__6417 out[7] ldotop_test_in[7] ldotop_en VSS VSS VDD VDD pass_in[7] 
+ sky130_fd_sc_hd__mux2_1 
Xg718__5477 out[24] ldotop_test_in[24] ldotop_en VSS VSS VDD VDD pass_in[24] 
+ sky130_fd_sc_hd__mux2_1 
Xg719__2398 out[15] ldotop_test_in[15] ldotop_en VSS VSS VDD VDD pass_in[15] 
+ sky130_fd_sc_hd__mux2_2 
Xg720__5107 out[8] ldotop_test_in[8] ldotop_en VSS VSS VDD VDD pass_in[8] 
+ sky130_fd_sc_hd__mux2_1 
Xg721__6260 out[16] ldotop_test_in[16] ldotop_en VSS VSS VDD VDD pass_in[16] 
+ sky130_fd_sc_hd__mux2_2 
Xg722__4319 out[11] ldotop_test_in[11] ldotop_en VSS VSS VDD VDD pass_in[11] 
+ sky130_fd_sc_hd__mux2_1 
XFILLER_AO_T_0_1 VSS VSS VDD VDD sky130_fd_sc_hd__decap_6 
XFILLER_AO_T_0_2 VSS VSS VDD VDD sky130_fd_sc_hd__decap_3 
XFILLER_AO_T_0_3 VSS VSS VDD VDD sky130_fd_sc_hd__decap_12 
XFILLER_AO_T_0_4 VSS VSS VDD VDD sky130_fd_sc_hd__decap_12 
XFILLER_AO_T_0_5 VSS VSS VDD VDD sky130_fd_sc_hd__decap_4 
XFILLER_AO_T_0_6 VSS VSS VDD VDD sky130_fd_sc_hd__decap_3 
XFILLER_AO_T_0_7 VSS VSS VDD VDD sky130_fd_sc_hd__decap_12 
XFILLER_AO_T_0_8 VSS VSS VDD VDD sky130_fd_sc_hd__decap_12 
XFILLER_AO_T_0_9 VSS VSS VDD VDD sky130_fd_sc_hd__decap_4 
XFILLER_AO_T_0_10 VSS VSS VDD VDD sky130_fd_sc_hd__decap_3 
XFILLER_AO_T_0_11 VSS VSS VDD VDD sky130_fd_sc_hd__decap_12 
XFILLER_AO_T_0_12 VSS VSS VDD VDD sky130_fd_sc_hd__decap_12 
XFILLER_AO_T_0_13 VSS VSS VDD VDD sky130_fd_sc_hd__decap_4 
XFILLER_AO_T_0_14 VSS VSS VDD VDD sky130_fd_sc_hd__decap_3 
XFILLER_AO_T_0_15 VSS VSS VDD VDD sky130_fd_sc_hd__decap_12 
XFILLER_AO_T_0_16 VSS VSS VDD VDD sky130_fd_sc_hd__decap_12 
XFILLER_AO_T_0_17 VSS VSS VDD VDD sky130_fd_sc_hd__decap_4 
XFILLER_AO_T_0_18 VSS VSS VDD VDD sky130_fd_sc_hd__decap_3 
XFILLER_AO_T_0_19 VSS VSS VDD VDD sky130_fd_sc_hd__decap_12 
XFILLER_AO_T_0_20 VSS VSS VDD VDD sky130_fd_sc_hd__decap_12 
XFILLER_AO_T_0_21 VSS VSS VDD VDD sky130_fd_sc_hd__decap_4 
XFILLER_AO_T_0_22 VSS VSS VDD VDD sky130_fd_sc_hd__decap_3 
XFILLER_AO_T_0_23 VSS VSS VDD VDD sky130_fd_sc_hd__decap_12 
XFILLER_AO_T_0_24 VSS VSS VDD VDD sky130_fd_sc_hd__decap_12 
XFILLER_AO_T_0_25 VSS VSS VDD VDD sky130_fd_sc_hd__decap_4 
XFILLER_AO_T_0_26 VSS VSS VDD VDD sky130_fd_sc_hd__decap_3 
XFILLER_AO_T_0_27 VSS VSS VDD VDD sky130_fd_sc_hd__decap_12 
XFILLER_AO_T_0_28 VSS VSS VDD VDD sky130_fd_sc_hd__decap_3 
XFILLER_AO_T_0_29 VSS VSS VDD VDD sky130_fd_sc_hd__decap_4 
XFILLER_AO_T_0_30 VSS VSS VDD VDD sky130_fd_sc_hd__decap_3 
XFILLER_AO_T_0_31 VSS VSS VDD VDD sky130_fd_sc_hd__decap_12 
XFILLER_AO_T_0_32 VSS VSS VDD VDD sky130_fd_sc_hd__decap_12 
XFILLER_AO_T_0_33 VSS VSS VDD VDD sky130_fd_sc_hd__decap_4 
XFILLER_AO_T_0_34 VSS VSS VDD VDD sky130_fd_sc_hd__decap_3 
XFILLER_AO_T_0_35 VSS VSS VDD VDD sky130_fd_sc_hd__decap_8 
XFILLER_AO_T_0_36 VSS VSS VDD VDD sky130_fd_sc_hd__decap_6 
XFILLER_AO_T_0_37 VSS VSS VDD VDD sky130_fd_sc_hd__decap_3 
XFILLER_AO_T_0_38 VSS VSS VDD VDD sky130_fd_sc_hd__decap_3 
XFILLER_AO_T_0_39 VSS VSS VDD VDD sky130_fd_sc_hd__decap_12 
XFILLER_AO_T_0_40 VSS VSS VDD VDD sky130_fd_sc_hd__decap_12 
XFILLER_AO_T_0_41 VSS VSS VDD VDD sky130_fd_sc_hd__decap_4 
XFILLER_AO_T_0_42 VSS VSS VDD VDD sky130_fd_sc_hd__decap_3 
XFILLER_AO_T_0_43 VSS VSS VDD VDD sky130_fd_sc_hd__decap_12 
XFILLER_AO_T_0_44 VSS VSS VDD VDD sky130_fd_sc_hd__decap_4 
XFILLER_AO_T_0_45 VSS VSS VDD VDD sky130_fd_sc_hd__decap_3 
XFILLER_AO_T_0_46 VSS VSS VDD VDD sky130_fd_sc_hd__decap_3 
XFILLER_AO_T_0_47 VSS VSS VDD VDD sky130_fd_sc_hd__decap_6 
XFILLER_AO_T_0_48 VSS VSS VDD VDD sky130_fd_sc_hd__decap_3 
XFILLER_AO_T_0_49 VSS VSS VDD VDD sky130_fd_sc_hd__decap_6 
XFILLER_AO_T_0_50 VSS VSS VDD VDD sky130_fd_sc_hd__decap_4 
XFILLER_AO_T_0_51 VSS VSS VDD VDD sky130_fd_sc_hd__decap_3 
XFILLER_AO_T_0_52 VSS VSS VDD VDD sky130_fd_sc_hd__decap_12 
XFILLER_AO_T_0_53 VSS VSS VDD VDD sky130_fd_sc_hd__decap_6 
XFILLER_AO_T_0_54 VSS VSS VDD VDD sky130_fd_sc_hd__decap_4 
XFILLER_AO_T_0_55 VSS VSS VDD VDD sky130_fd_sc_hd__decap_12 
XFILLER_AO_T_0_56 VSS VSS VDD VDD sky130_fd_sc_hd__decap_12 
XFILLER_AO_T_0_57 VSS VSS VDD VDD sky130_fd_sc_hd__decap_4 
XFILLER_AO_T_0_58 VSS VSS VDD VDD sky130_fd_sc_hd__decap_3 
XFILLER_AO_T_0_59 VSS VSS VDD VDD sky130_fd_sc_hd__decap_12 
XFILLER_AO_T_0_60 VSS VSS VDD VDD sky130_fd_sc_hd__decap_12 
XFILLER_AO_T_0_61 VSS VSS VDD VDD sky130_fd_sc_hd__decap_4 
XFILLER_AO_T_0_62 VSS VSS VDD VDD sky130_fd_sc_hd__decap_3 
XFILLER_AO_T_0_63 VSS VSS VDD VDD sky130_fd_sc_hd__decap_12 
XFILLER_AO_T_0_64 VSS VSS VDD VDD sky130_fd_sc_hd__decap_12 
XFILLER_AO_T_0_65 VSS VSS VDD VDD sky130_fd_sc_hd__decap_4 
XFILLER_AO_T_0_66 VSS VSS VDD VDD sky130_fd_sc_hd__decap_3 
XFILLER_AO_T_0_67 VSS VSS VDD VDD sky130_fd_sc_hd__decap_12 
XFILLER_AO_T_0_68 VSS VSS VDD VDD sky130_fd_sc_hd__decap_12 
XFILLER_AO_T_0_69 VSS VSS VDD VDD sky130_fd_sc_hd__decap_4 
XFILLER_AO_T_0_70 VSS VSS VDD VDD sky130_fd_sc_hd__decap_3 
XFILLER_AO_T_0_71 VSS VSS VDD VDD sky130_fd_sc_hd__decap_12 
XFILLER_AO_T_0_72 VSS VSS VDD VDD sky130_fd_sc_hd__decap_12 
XFILLER_AO_T_0_73 VSS VSS VDD VDD sky130_fd_sc_hd__decap_4 
XFILLER_AO_T_0_74 VSS VSS VDD VDD sky130_fd_sc_hd__decap_3 
XFILLER_AO_T_0_75 VSS VSS VDD VDD sky130_fd_sc_hd__decap_12 
XFILLER_AO_T_0_76 VSS VSS VDD VDD sky130_fd_sc_hd__decap_12 
XFILLER_AO_T_0_77 VSS VSS VDD VDD sky130_fd_sc_hd__decap_4 
XFILLER_AO_T_0_78 VSS VSS VDD VDD sky130_fd_sc_hd__decap_3 
XFILLER_AO_T_0_79 VSS VSS VDD VDD sky130_fd_sc_hd__decap_12 
XFILLER_AO_T_0_80 VSS VSS VDD VDD sky130_fd_sc_hd__decap_12 
XFILLER_AO_T_0_81 VSS VSS VDD VDD sky130_fd_sc_hd__decap_4 
XFILLER_AO_T_0_82 VSS VSS VDD VDD sky130_fd_sc_hd__decap_3 
XFILLER_AO_T_0_83 VSS VSS VDD VDD sky130_fd_sc_hd__decap_12 
XFILLER_AO_T_0_84 VSS VSS VDD VDD sky130_fd_sc_hd__decap_12 
XFILLER_AO_T_0_85 VSS VSS VDD VDD sky130_fd_sc_hd__decap_4 
XFILLER_AO_T_0_86 VSS VSS VDD VDD sky130_fd_sc_hd__decap_3 
XFILLER_AO_T_0_87 VSS VSS VDD VDD sky130_fd_sc_hd__decap_8 
XFILLER_AO_T_0_88 VSS VSS VDD VDD sky130_fd_sc_hd__decap_6 
XFILLER_AO_T_0_89 VSS VSS VDD VDD sky130_fd_sc_hd__decap_8 
XFILLER_AO_T_0_90 VSS VSS VDD VDD sky130_fd_sc_hd__decap_12 
XFILLER_AO_T_0_91 VSS VSS VDD VDD sky130_fd_sc_hd__decap_12 
XFILLER_AO_T_0_92 VSS VSS VDD VDD sky130_fd_sc_hd__decap_12 
XFILLER_AO_T_0_93 VSS VSS VDD VDD sky130_fd_sc_hd__decap_4 
XFILLER_AO_T_0_94 VSS VSS VDD VDD sky130_fd_sc_hd__decap_3 
XFILLER_AO_T_0_95 VSS VSS VDD VDD sky130_fd_sc_hd__decap_12 
XFILLER_AO_T_0_96 VSS VSS VDD VDD sky130_fd_sc_hd__decap_8 
XFILLER_AO_T_0_97 VSS VSS VDD VDD sky130_fd_sc_hd__decap_3 
XFILLER_AO_T_0_98 VSS VSS VDD VDD sky130_fd_sc_hd__decap_6 
XFILLER_AO_T_0_99 VSS VSS VDD VDD sky130_fd_sc_hd__decap_3 
XFILLER_AO_T_0_100 VSS VSS VDD VDD sky130_fd_sc_hd__decap_4 
XFILLER_AO_T_0_101 VSS VSS VDD VDD sky130_fd_sc_hd__decap_12 
XFILLER_AO_T_0_102 VSS VSS VDD VDD sky130_fd_sc_hd__decap_4 
XFILLER_AO_T_0_103 VSS VSS VDD VDD sky130_fd_sc_hd__decap_3 
XFILLER_AO_T_0_104 VSS VSS VDD VDD sky130_fd_sc_hd__decap_12 
XFILLER_AO_T_0_105 VSS VSS VDD VDD sky130_fd_sc_hd__decap_8 
XFILLER_AO_T_0_106 VSS VSS VDD VDD sky130_fd_sc_hd__decap_6 
XFILLER_AO_T_0_107 VSS VSS VDD VDD sky130_fd_sc_hd__decap_12 
XFILLER_AO_T_0_108 VSS VSS VDD VDD sky130_fd_sc_hd__decap_12 
XFILLER_AO_T_0_109 VSS VSS VDD VDD sky130_fd_sc_hd__decap_4 
XFILLER_AO_T_0_110 VSS VSS VDD VDD sky130_fd_sc_hd__decap_3 
XFILLER_AO_T_0_111 VSS VSS VDD VDD sky130_fd_sc_hd__decap_12 
XFILLER_AO_T_0_112 VSS VSS VDD VDD sky130_fd_sc_hd__decap_6 
XFILLER_AO_T_0_113 VSS VSS VDD VDD sky130_fd_sc_hd__decap_4 
XFILLER_AO_T_0_114 VSS VSS VDD VDD sky130_fd_sc_hd__decap_8 
XFILLER_AO_T_0_115 VSS VSS VDD VDD sky130_fd_sc_hd__decap_3 
XFILLER_AO_T_0_116 VSS VSS VDD VDD sky130_fd_sc_hd__decap_12 
XFILLER_AO_T_0_117 VSS VSS VDD VDD sky130_fd_sc_hd__decap_12 
XFILLER_AO_T_0_118 VSS VSS VDD VDD sky130_fd_sc_hd__decap_4 
XFILLER_AO_T_0_119 VSS VSS VDD VDD sky130_fd_sc_hd__decap_3 
XFILLER_AO_T_0_120 VSS VSS VDD VDD sky130_fd_sc_hd__decap_12 
XFILLER_AO_T_0_121 VSS VSS VDD VDD sky130_fd_sc_hd__decap_6 
XFILLER_AO_T_0_122 VSS VSS VDD VDD sky130_fd_sc_hd__decap_3 
XFILLER_AO_T_0_123 VSS VSS VDD VDD sky130_fd_sc_hd__decap_12 
XFILLER_AO_T_0_124 VSS VSS VDD VDD sky130_fd_sc_hd__decap_12 
XFILLER_AO_T_0_125 VSS VSS VDD VDD sky130_fd_sc_hd__decap_4 
XFILLER_AO_T_0_126 VSS VSS VDD VDD sky130_fd_sc_hd__decap_3 
XFILLER_AO_T_0_127 VSS VSS VDD VDD sky130_fd_sc_hd__decap_12 
XFILLER_AO_T_0_128 VSS VSS VDD VDD sky130_fd_sc_hd__decap_6 
XFILLER_AO_T_0_129 VSS VSS VDD VDD sky130_fd_sc_hd__decap_4 
XFILLER_AO_T_0_130 VSS VSS VDD VDD sky130_fd_sc_hd__decap_12 
XFILLER_AO_T_0_131 VSS VSS VDD VDD sky130_fd_sc_hd__decap_6 
XFILLER_AO_T_0_132 VSS VSS VDD VDD sky130_fd_sc_hd__decap_4 
XFILLER_AO_T_0_133 VSS VSS VDD VDD sky130_fd_sc_hd__decap_6 
XFILLER_AO_T_0_134 VSS VSS VDD VDD sky130_fd_sc_hd__decap_3 
XFILLER_AO_T_0_135 VSS VSS VDD VDD sky130_fd_sc_hd__decap_4 
XFILLER_AO_T_0_136 VSS VSS VDD VDD sky130_fd_sc_hd__decap_12 
XFILLER_AO_T_0_137 VSS VSS VDD VDD sky130_fd_sc_hd__decap_6 
XFILLER_AO_T_0_138 VSS VSS VDD VDD sky130_fd_sc_hd__decap_3 
XFILLER_AO_T_0_139 VSS VSS VDD VDD sky130_fd_sc_hd__decap_3 
XFILLER_AO_T_0_140 VSS VSS VDD VDD sky130_fd_sc_hd__decap_12 
XFILLER_AO_T_0_141 VSS VSS VDD VDD sky130_fd_sc_hd__decap_6 
XFILLER_AO_T_0_142 VSS VSS VDD VDD sky130_fd_sc_hd__decap_4 
XFILLER_AO_T_0_143 VSS VSS VDD VDD sky130_fd_sc_hd__decap_12 
XFILLER_AO_T_0_144 VSS VSS VDD VDD sky130_fd_sc_hd__decap_6 
XFILLER_AO_T_0_145 VSS VSS VDD VDD sky130_fd_sc_hd__decap_3 
XFILLER_AO_T_0_146 VSS VSS VDD VDD sky130_fd_sc_hd__decap_6 
XFILLER_AO_T_0_147 VSS VSS VDD VDD sky130_fd_sc_hd__decap_4 
XFILLER_AO_T_0_148 VSS VSS VDD VDD sky130_fd_sc_hd__decap_3 
XFILLER_AO_T_0_149 VSS VSS VDD VDD sky130_fd_sc_hd__decap_12 
XFILLER_AO_T_0_150 VSS VSS VDD VDD sky130_fd_sc_hd__decap_12 
XFILLER_AO_T_0_151 VSS VSS VDD VDD sky130_fd_sc_hd__decap_3 
XFILLER_AO_T_0_152 VSS VSS VDD VDD sky130_fd_sc_hd__decap_3 
XFILLER_AO_T_0_153 VSS VSS VDD VDD sky130_fd_sc_hd__decap_12 
XFILLER_AO_T_0_154 VSS VSS VDD VDD sky130_fd_sc_hd__decap_12 
XFILLER_AO_T_0_155 VSS VSS VDD VDD sky130_fd_sc_hd__decap_4 
XFILLER_AO_T_0_156 VSS VSS VDD VDD sky130_fd_sc_hd__decap_3 
XFILLER_AO_T_0_157 VSS VSS VDD VDD sky130_fd_sc_hd__decap_12 
XFILLER_AO_T_0_158 VSS VSS VDD VDD sky130_fd_sc_hd__decap_8 
XFILLER_AO_T_0_159 VSS VSS VDD VDD sky130_fd_sc_hd__decap_3 
XFILLER_AO_T_0_160 VSS VSS VDD VDD sky130_fd_sc_hd__decap_6 
XFILLER_AO_T_0_161 VSS VSS VDD VDD sky130_fd_sc_hd__decap_3 
XFILLER_AO_T_0_162 VSS VSS VDD VDD sky130_fd_sc_hd__decap_3 
XFILLER_AO_T_0_163 VSS VSS VDD VDD sky130_fd_sc_hd__decap_8 
XFILLER_AO_T_0_164 VSS VSS VDD VDD sky130_fd_sc_hd__decap_3 
XFILLER_AO_T_0_165 VSS VSS VDD VDD sky130_fd_sc_hd__decap_6 
XFILLER_AO_T_0_166 VSS VSS VDD VDD sky130_fd_sc_hd__decap_12 
XFILLER_AO_T_0_167 VSS VSS VDD VDD sky130_fd_sc_hd__decap_8 
XFILLER_AO_T_0_168 VSS VSS VDD VDD sky130_fd_sc_hd__decap_6 
XFILLER_AO_T_0_169 VSS VSS VDD VDD sky130_fd_sc_hd__decap_12 
XFILLER_AO_T_0_170 VSS VSS VDD VDD sky130_fd_sc_hd__decap_6 
XFILLER_AO_T_0_171 VSS VSS VDD VDD sky130_fd_sc_hd__decap_4 
XFILLER_AO_T_0_172 VSS VSS VDD VDD sky130_fd_sc_hd__decap_12 
XFILLER_AO_T_0_173 VSS VSS VDD VDD sky130_fd_sc_hd__decap_6 
XFILLER_AO_T_0_174 VSS VSS VDD VDD sky130_fd_sc_hd__decap_4 
XFILLER_AO_T_0_175 VSS VSS VDD VDD sky130_fd_sc_hd__decap_8 
XFILLER_AO_T_0_176 VSS VSS VDD VDD sky130_fd_sc_hd__decap_3 
XFILLER_AO_T_0_177 VSS VSS VDD VDD sky130_fd_sc_hd__decap_8 
XFILLER_AO_T_0_178 VSS VSS VDD VDD sky130_fd_sc_hd__decap_3 
XFILLER_AO_T_0_179 VSS VSS VDD VDD sky130_fd_sc_hd__decap_6 
XFILLER_AO_T_0_180 VSS VSS VDD VDD sky130_fd_sc_hd__decap_3 
XFILLER_AO_T_0_181 VSS VSS VDD VDD sky130_fd_sc_hd__decap_6 
XFILLER_AO_T_0_182 VSS VSS VDD VDD sky130_fd_sc_hd__decap_4 
XFILLER_AO_T_0_183 VSS VSS VDD VDD sky130_fd_sc_hd__decap_3 
XFILLER_AO_T_0_184 VSS VSS VDD VDD sky130_fd_sc_hd__decap_12 
XFILLER_AO_T_0_185 VSS VSS VDD VDD sky130_fd_sc_hd__decap_3 
XFILLER_AO_T_0_186 VSS VSS VDD VDD sky130_fd_sc_hd__decap_4 
XFILLER_AO_T_0_187 VSS VSS VDD VDD sky130_fd_sc_hd__decap_3 
XFILLER_AO_T_0_188 VSS VSS VDD VDD sky130_fd_sc_hd__decap_4 
XFILLER_AO_T_0_189 VSS VSS VDD VDD sky130_fd_sc_hd__decap_3 
XFILLER_AO_T_0_190 VSS VSS VDD VDD sky130_fd_sc_hd__decap_12 
XFILLER_AO_T_0_191 VSS VSS VDD VDD sky130_fd_sc_hd__decap_3 
XFILLER_AO_T_0_192 VSS VSS VDD VDD sky130_fd_sc_hd__decap_12 
XFILLER_AO_T_0_193 VSS VSS VDD VDD sky130_fd_sc_hd__decap_12 
XFILLER_AO_T_0_194 VSS VSS VDD VDD sky130_fd_sc_hd__decap_4 
XFILLER_AO_T_0_195 VSS VSS VDD VDD sky130_fd_sc_hd__decap_3 
XFILLER_AO_T_0_196 VSS VSS VDD VDD sky130_fd_sc_hd__decap_3 
XFILLER_AO_T_0_197 VSS VSS VDD VDD sky130_fd_sc_hd__decap_8 
XFILLER_AO_T_0_198 VSS VSS VDD VDD sky130_fd_sc_hd__decap_6 
XFILLER_AO_T_0_199 VSS VSS VDD VDD sky130_fd_sc_hd__decap_3 
XFILLER_AO_T_0_200 VSS VSS VDD VDD sky130_fd_sc_hd__decap_12 
XFILLER_AO_T_0_201 VSS VSS VDD VDD sky130_fd_sc_hd__decap_12 
XFILLER_AO_T_0_202 VSS VSS VDD VDD sky130_fd_sc_hd__decap_4 
XFILLER_AO_T_0_203 VSS VSS VDD VDD sky130_fd_sc_hd__decap_3 
XFILLER_AO_T_0_204 VSS VSS VDD VDD sky130_fd_sc_hd__decap_12 
XFILLER_AO_T_0_205 VSS VSS VDD VDD sky130_fd_sc_hd__decap_12 
XFILLER_AO_T_0_206 VSS VSS VDD VDD sky130_fd_sc_hd__decap_4 
XFILLER_AO_T_0_207 VSS VSS VDD VDD sky130_fd_sc_hd__decap_3 
XFILLER_AO_T_0_208 VSS VSS VDD VDD sky130_fd_sc_hd__decap_12 
XFILLER_AO_T_0_209 VSS VSS VDD VDD sky130_fd_sc_hd__decap_12 
XFILLER_AO_T_0_210 VSS VSS VDD VDD sky130_fd_sc_hd__decap_4 
XFILLER_AO_T_0_211 VSS VSS VDD VDD sky130_fd_sc_hd__decap_3 
XFILLER_AO_T_0_212 VSS VSS VDD VDD sky130_fd_sc_hd__decap_12 
XFILLER_AO_T_0_213 VSS VSS VDD VDD sky130_fd_sc_hd__decap_12 
XFILLER_AO_T_0_214 VSS VSS VDD VDD sky130_fd_sc_hd__decap_4 
XFILLER_AO_T_0_215 VSS VSS VDD VDD sky130_fd_sc_hd__decap_3 
XFILLER_AO_T_0_216 VSS VSS VDD VDD sky130_fd_sc_hd__decap_12 
XFILLER_AO_T_0_217 VSS VSS VDD VDD sky130_fd_sc_hd__decap_12 
XFILLER_AO_T_0_218 VSS VSS VDD VDD sky130_fd_sc_hd__decap_4 
XFILLER_AO_T_0_219 VSS VSS VDD VDD sky130_fd_sc_hd__decap_3 
XFILLER_AO_T_0_220 VSS VSS VDD VDD sky130_fd_sc_hd__decap_12 
XFILLER_AO_T_0_221 VSS VSS VDD VDD sky130_fd_sc_hd__decap_4 
XFILLER_AO_T_0_222 VSS VSS VDD VDD sky130_fd_sc_hd__decap_3 
XFILLER_AO_T_0_223 VSS VSS VDD VDD sky130_fd_sc_hd__decap_3 
XFILLER_AO_T_0_224 VSS VSS VDD VDD sky130_fd_sc_hd__decap_12 
XFILLER_AO_T_0_225 VSS VSS VDD VDD sky130_fd_sc_hd__decap_12 
XFILLER_AO_T_0_226 VSS VSS VDD VDD sky130_fd_sc_hd__decap_3 
XFILLER_AO_T_0_227 VSS VSS VDD VDD sky130_fd_sc_hd__decap_4 
XFILLER_AO_T_0_228 VSS VSS VDD VDD sky130_fd_sc_hd__decap_12 
XFILLER_AO_T_0_229 VSS VSS VDD VDD sky130_fd_sc_hd__decap_12 
XFILLER_AO_T_0_230 VSS VSS VDD VDD sky130_fd_sc_hd__decap_4 
XFILLER_AO_T_0_231 VSS VSS VDD VDD sky130_fd_sc_hd__decap_3 
XFILLER_AO_T_0_232 VSS VSS VDD VDD sky130_fd_sc_hd__decap_12 
XFILLER_AO_T_0_233 VSS VSS VDD VDD sky130_fd_sc_hd__decap_8 
XFILLER_AO_T_0_234 VSS VSS VDD VDD sky130_fd_sc_hd__decap_3 
XFILLER_AO_T_0_235 VSS VSS VDD VDD sky130_fd_sc_hd__decap_6 
XFILLER_AO_T_0_236 VSS VSS VDD VDD sky130_fd_sc_hd__decap_3 
XFILLER_AO_T_0_237 VSS VSS VDD VDD sky130_fd_sc_hd__decap_3 
XFILLER_AO_T_0_238 VSS VSS VDD VDD sky130_fd_sc_hd__decap_8 
XFILLER_AO_T_0_239 VSS VSS VDD VDD sky130_fd_sc_hd__decap_3 
XFILLER_AO_T_0_240 VSS VSS VDD VDD sky130_fd_sc_hd__decap_6 
XFILLER_AO_T_0_241 VSS VSS VDD VDD sky130_fd_sc_hd__decap_12 
XFILLER_AO_T_0_242 VSS VSS VDD VDD sky130_fd_sc_hd__decap_8 
XFILLER_AO_T_0_243 VSS VSS VDD VDD sky130_fd_sc_hd__decap_3 
XFILLER_AO_T_0_244 VSS VSS VDD VDD sky130_fd_sc_hd__decap_12 
XFILLER_AO_T_0_245 VSS VSS VDD VDD sky130_fd_sc_hd__decap_12 
XFILLER_AO_T_0_246 VSS VSS VDD VDD sky130_fd_sc_hd__decap_3 
XFILLER_AO_T_0_247 VSS VSS VDD VDD sky130_fd_sc_hd__decap_4 
XFILLER_AO_T_0_248 VSS VSS VDD VDD sky130_fd_sc_hd__decap_12 
XFILLER_AO_T_0_249 VSS VSS VDD VDD sky130_fd_sc_hd__decap_12 
XFILLER_AO_T_0_250 VSS VSS VDD VDD sky130_fd_sc_hd__decap_4 
XFILLER_AO_T_0_251 VSS VSS VDD VDD sky130_fd_sc_hd__decap_3 
XFILLER_AO_T_0_252 VSS VSS VDD VDD sky130_fd_sc_hd__decap_12 
XFILLER_AO_T_0_253 VSS VSS VDD VDD sky130_fd_sc_hd__decap_8 
XFILLER_AO_T_0_254 VSS VSS VDD VDD sky130_fd_sc_hd__decap_3 
XFILLER_AO_T_0_255 VSS VSS VDD VDD sky130_fd_sc_hd__decap_6 
XFILLER_AO_T_0_256 VSS VSS VDD VDD sky130_fd_sc_hd__decap_3 
XFILLER_AO_T_0_257 VSS VSS VDD VDD sky130_fd_sc_hd__decap_3 
XFILLER_AO_T_0_258 VSS VSS VDD VDD sky130_fd_sc_hd__decap_8 
XFILLER_AO_T_0_259 VSS VSS VDD VDD sky130_fd_sc_hd__decap_3 
XFILLER_AO_T_0_260 VSS VSS VDD VDD sky130_fd_sc_hd__decap_6 
XFILLER_AO_T_0_261 VSS VSS VDD VDD sky130_fd_sc_hd__decap_12 
XFILLER_AO_T_0_262 VSS VSS VDD VDD sky130_fd_sc_hd__decap_8 
XFILLER_AO_T_0_263 VSS VSS VDD VDD sky130_fd_sc_hd__decap_3 
XFILLER_AO_T_0_264 VSS VSS VDD VDD sky130_fd_sc_hd__decap_12 
XFILLER_AO_T_0_265 VSS VSS VDD VDD sky130_fd_sc_hd__decap_12 
XFILLER_AO_T_0_266 VSS VSS VDD VDD sky130_fd_sc_hd__decap_3 
XFILLER_AO_T_0_267 VSS VSS VDD VDD sky130_fd_sc_hd__decap_4 
XFILLER_AO_T_0_268 VSS VSS VDD VDD sky130_fd_sc_hd__decap_12 
XFILLER_AO_T_0_269 VSS VSS VDD VDD sky130_fd_sc_hd__decap_12 
XFILLER_AO_T_0_270 VSS VSS VDD VDD sky130_fd_sc_hd__decap_4 
XFILLER_AO_T_0_271 VSS VSS VDD VDD sky130_fd_sc_hd__decap_3 
XFILLER_AO_T_0_272 VSS VSS VDD VDD sky130_fd_sc_hd__decap_12 
XFILLER_AO_T_0_273 VSS VSS VDD VDD sky130_fd_sc_hd__decap_8 
XFILLER_AO_T_0_274 VSS VSS VDD VDD sky130_fd_sc_hd__decap_3 
XFILLER_AO_T_0_275 VSS VSS VDD VDD sky130_fd_sc_hd__decap_6 
XFILLER_AO_T_0_276 VSS VSS VDD VDD sky130_fd_sc_hd__decap_3 
XFILLER_AO_T_0_277 VSS VSS VDD VDD sky130_fd_sc_hd__decap_3 
XFILLER_AO_T_0_278 VSS VSS VDD VDD sky130_fd_sc_hd__decap_8 
XFILLER_AO_T_0_279 VSS VSS VDD VDD sky130_fd_sc_hd__decap_3 
XFILLER_AO_T_0_280 VSS VSS VDD VDD sky130_fd_sc_hd__decap_6 
XFILLER_AO_T_0_281 VSS VSS VDD VDD sky130_fd_sc_hd__decap_12 
XFILLER_AO_T_0_282 VSS VSS VDD VDD sky130_fd_sc_hd__decap_8 
XFILLER_AO_T_0_283 VSS VSS VDD VDD sky130_fd_sc_hd__decap_3 
XFILLER_AO_T_0_284 VSS VSS VDD VDD sky130_fd_sc_hd__decap_12 
XFILLER_AO_T_0_285 VSS VSS VDD VDD sky130_fd_sc_hd__decap_12 
XFILLER_AO_T_0_286 VSS VSS VDD VDD sky130_fd_sc_hd__decap_3 
XFILLER_AO_T_0_287 VSS VSS VDD VDD sky130_fd_sc_hd__decap_4 
XFILLER_AO_T_0_288 VSS VSS VDD VDD sky130_fd_sc_hd__decap_12 
XFILLER_AO_T_0_289 VSS VSS VDD VDD sky130_fd_sc_hd__decap_12 
XFILLER_AO_T_0_290 VSS VSS VDD VDD sky130_fd_sc_hd__decap_4 
XFILLER_AO_T_0_291 VSS VSS VDD VDD sky130_fd_sc_hd__decap_3 
XFILLER_AO_T_0_292 VSS VSS VDD VDD sky130_fd_sc_hd__decap_12 
XFILLER_AO_T_0_293 VSS VSS VDD VDD sky130_fd_sc_hd__decap_8 
XFILLER_AO_T_0_294 VSS VSS VDD VDD sky130_fd_sc_hd__decap_3 
XFILLER_AO_T_0_295 VSS VSS VDD VDD sky130_fd_sc_hd__decap_6 
XFILLER_AO_T_0_296 VSS VSS VDD VDD sky130_fd_sc_hd__decap_3 
XFILLER_AO_T_0_297 VSS VSS VDD VDD sky130_fd_sc_hd__decap_3 
XFILLER_AO_T_0_298 VSS VSS VDD VDD sky130_fd_sc_hd__decap_8 
XFILLER_AO_T_0_299 VSS VSS VDD VDD sky130_fd_sc_hd__decap_3 
XFILLER_AO_T_0_300 VSS VSS VDD VDD sky130_fd_sc_hd__decap_6 
XFILLER_AO_T_0_301 VSS VSS VDD VDD sky130_fd_sc_hd__decap_12 
XFILLER_AO_T_0_302 VSS VSS VDD VDD sky130_fd_sc_hd__decap_8 
XFILLER_AO_T_0_303 VSS VSS VDD VDD sky130_fd_sc_hd__decap_3 
XFILLER_AO_T_0_304 VSS VSS VDD VDD sky130_fd_sc_hd__decap_12 
XFILLER_AO_T_0_305 VSS VSS VDD VDD sky130_fd_sc_hd__decap_12 
XFILLER_AO_T_0_306 VSS VSS VDD VDD sky130_fd_sc_hd__decap_3 
XFILLER_AO_T_0_307 VSS VSS VDD VDD sky130_fd_sc_hd__decap_4 
XFILLER_AO_T_0_308 VSS VSS VDD VDD sky130_fd_sc_hd__decap_12 
XFILLER_AO_T_0_309 VSS VSS VDD VDD sky130_fd_sc_hd__decap_12 
XFILLER_AO_T_0_310 VSS VSS VDD VDD sky130_fd_sc_hd__decap_4 
XFILLER_AO_T_0_311 VSS VSS VDD VDD sky130_fd_sc_hd__decap_3 
XFILLER_AO_T_0_312 VSS VSS VDD VDD sky130_fd_sc_hd__decap_12 
XFILLER_AO_T_0_313 VSS VSS VDD VDD sky130_fd_sc_hd__decap_8 
XFILLER_AO_T_0_314 VSS VSS VDD VDD sky130_fd_sc_hd__decap_3 
XFILLER_AO_T_0_315 VSS VSS VDD VDD sky130_fd_sc_hd__decap_6 
XFILLER_AO_T_0_316 VSS VSS VDD VDD sky130_fd_sc_hd__decap_3 
XFILLER_AO_T_0_317 VSS VSS VDD VDD sky130_fd_sc_hd__decap_3 
XFILLER_AO_T_0_318 VSS VSS VDD VDD sky130_fd_sc_hd__decap_8 
XFILLER_AO_T_0_319 VSS VSS VDD VDD sky130_fd_sc_hd__decap_3 
XFILLER_AO_T_0_320 VSS VSS VDD VDD sky130_fd_sc_hd__decap_6 
XFILLER_AO_T_0_321 VSS VSS VDD VDD sky130_fd_sc_hd__decap_12 
XFILLER_AO_T_0_322 VSS VSS VDD VDD sky130_fd_sc_hd__decap_8 
XFILLER_AO_T_0_323 VSS VSS VDD VDD sky130_fd_sc_hd__decap_3 
XFILLER_AO_T_0_324 VSS VSS VDD VDD sky130_fd_sc_hd__decap_12 
XFILLER_AO_T_0_325 VSS VSS VDD VDD sky130_fd_sc_hd__decap_12 
XFILLER_AO_T_0_326 VSS VSS VDD VDD sky130_fd_sc_hd__decap_3 
XFILLER_AO_T_0_327 VSS VSS VDD VDD sky130_fd_sc_hd__decap_4 
XFILLER_AO_T_0_328 VSS VSS VDD VDD sky130_fd_sc_hd__decap_12 
XFILLER_AO_T_0_329 VSS VSS VDD VDD sky130_fd_sc_hd__decap_12 
XFILLER_AO_T_0_330 VSS VSS VDD VDD sky130_fd_sc_hd__decap_4 
XFILLER_AO_T_0_331 VSS VSS VDD VDD sky130_fd_sc_hd__decap_3 
XFILLER_AO_T_0_332 VSS VSS VDD VDD sky130_fd_sc_hd__decap_12 
XFILLER_AO_T_0_333 VSS VSS VDD VDD sky130_fd_sc_hd__decap_8 
XFILLER_AO_T_0_334 VSS VSS VDD VDD sky130_fd_sc_hd__decap_3 
XFILLER_AO_T_0_335 VSS VSS VDD VDD sky130_fd_sc_hd__decap_6 
XFILLER_AO_T_0_336 VSS VSS VDD VDD sky130_fd_sc_hd__decap_3 
XFILLER_AO_T_0_337 VSS VSS VDD VDD sky130_fd_sc_hd__decap_4 
XFILLER_AO_T_0_338 VSS VSS VDD VDD sky130_fd_sc_hd__decap_8 
XFILLER_AO_T_0_339 VSS VSS VDD VDD sky130_fd_sc_hd__decap_3 
XFILLER_AO_T_0_340 VSS VSS VDD VDD sky130_fd_sc_hd__decap_6 
XFILLER_AO_T_0_341 VSS VSS VDD VDD sky130_fd_sc_hd__decap_12 
XFILLER_AO_T_0_342 VSS VSS VDD VDD sky130_fd_sc_hd__decap_8 
XFILLER_AO_T_0_343 VSS VSS VDD VDD sky130_fd_sc_hd__decap_3 
XFILLER_AO_T_0_344 VSS VSS VDD VDD sky130_fd_sc_hd__decap_12 
XFILLER_AO_T_0_345 VSS VSS VDD VDD sky130_fd_sc_hd__decap_12 
XFILLER_AO_T_0_346 VSS VSS VDD VDD sky130_fd_sc_hd__decap_3 
XFILLER_AO_T_0_347 VSS VSS VDD VDD sky130_fd_sc_hd__decap_4 
XFILLER_AO_T_0_348 VSS VSS VDD VDD sky130_fd_sc_hd__decap_12 
XFILLER_AO_T_0_349 VSS VSS VDD VDD sky130_fd_sc_hd__decap_12 
XFILLER_AO_T_0_350 VSS VSS VDD VDD sky130_fd_sc_hd__decap_4 
XFILLER_AO_T_0_351 VSS VSS VDD VDD sky130_fd_sc_hd__decap_3 
XFILLER_AO_T_0_352 VSS VSS VDD VDD sky130_fd_sc_hd__decap_12 
XFILLER_AO_T_0_353 VSS VSS VDD VDD sky130_fd_sc_hd__decap_8 
XFILLER_AO_T_0_354 VSS VSS VDD VDD sky130_fd_sc_hd__decap_3 
XFILLER_AO_T_0_355 VSS VSS VDD VDD sky130_fd_sc_hd__decap_6 
XFILLER_AO_T_0_356 VSS VSS VDD VDD sky130_fd_sc_hd__decap_3 
XFILLER_AO_T_0_357 VSS VSS VDD VDD sky130_fd_sc_hd__decap_12 
XFILLER_AO_T_0_358 VSS VSS VDD VDD sky130_fd_sc_hd__decap_12 
XFILLER_AO_T_0_359 VSS VSS VDD VDD sky130_fd_sc_hd__decap_4 
XFILLER_AO_T_0_360 VSS VSS VDD VDD sky130_fd_sc_hd__decap_3 
XFILLER_AO_T_0_361 VSS VSS VDD VDD sky130_fd_sc_hd__decap_12 
XFILLER_AO_T_0_362 VSS VSS VDD VDD sky130_fd_sc_hd__decap_3 
XFILLER_AO_T_0_363 VSS VSS VDD VDD sky130_fd_sc_hd__decap_12 
XFILLER_AO_T_0_364 VSS VSS VDD VDD sky130_fd_sc_hd__decap_6 
XFILLER_AO_T_0_365 VSS VSS VDD VDD sky130_fd_sc_hd__decap_3 
XFILLER_AO_T_0_366 VSS VSS VDD VDD sky130_fd_sc_hd__decap_12 
XFILLER_AO_T_0_367 VSS VSS VDD VDD sky130_fd_sc_hd__decap_6 
XFILLER_AO_T_0_368 VSS VSS VDD VDD sky130_fd_sc_hd__decap_3 
XFILLER_AO_T_0_369 VSS VSS VDD VDD sky130_fd_sc_hd__decap_4 
XFILLER_AO_T_0_370 VSS VSS VDD VDD sky130_fd_sc_hd__decap_12 
XFILLER_AO_T_0_371 VSS VSS VDD VDD sky130_fd_sc_hd__decap_8 
XFILLER_AO_T_0_372 VSS VSS VDD VDD sky130_fd_sc_hd__decap_3 
XFILLER_AO_T_0_373 VSS VSS VDD VDD sky130_fd_sc_hd__decap_12 
XFILLER_AO_T_0_374 VSS VSS VDD VDD sky130_fd_sc_hd__decap_12 
XFILLER_AO_T_0_375 VSS VSS VDD VDD sky130_fd_sc_hd__decap_3 
XFILLER_AO_T_0_376 VSS VSS VDD VDD sky130_fd_sc_hd__decap_4 
XFILLER_AO_T_0_377 VSS VSS VDD VDD sky130_fd_sc_hd__decap_12 
XFILLER_AO_T_0_378 VSS VSS VDD VDD sky130_fd_sc_hd__decap_12 
XFILLER_AO_T_0_379 VSS VSS VDD VDD sky130_fd_sc_hd__decap_4 
XFILLER_AO_T_0_380 VSS VSS VDD VDD sky130_fd_sc_hd__decap_3 
XFILLER_AO_T_0_381 VSS VSS VDD VDD sky130_fd_sc_hd__decap_12 
XFILLER_AO_T_0_382 VSS VSS VDD VDD sky130_fd_sc_hd__decap_8 
XFILLER_AO_T_0_383 VSS VSS VDD VDD sky130_fd_sc_hd__decap_3 
XFILLER_AO_T_0_384 VSS VSS VDD VDD sky130_fd_sc_hd__decap_6 
XFILLER_AO_T_0_385 VSS VSS VDD VDD sky130_fd_sc_hd__decap_3 
XFILLER_AO_T_0_386 VSS VSS VDD VDD sky130_fd_sc_hd__decap_12 
XFILLER_AO_T_0_387 VSS VSS VDD VDD sky130_fd_sc_hd__decap_12 
XFILLER_AO_T_0_388 VSS VSS VDD VDD sky130_fd_sc_hd__decap_4 
XFILLER_AO_T_0_389 VSS VSS VDD VDD sky130_fd_sc_hd__decap_3 
XFILLER_AO_T_0_390 VSS VSS VDD VDD sky130_fd_sc_hd__decap_12 
XFILLER_AO_T_0_391 VSS VSS VDD VDD sky130_fd_sc_hd__decap_3 
XFILLER_AO_T_0_392 VSS VSS VDD VDD sky130_fd_sc_hd__decap_12 