$ Spice netlist generated by v2lvs
$ v2016.4_38.25    Tue Jan 3 14:53:59 PST 2017
*.BUSDELIMITER [ 

.SUBCKT DigitalLDOLogic out[0] out[1] out[2] out[3] out[4] out[5] out[6] out[7] out[8] out[9] out[10] out[11] out[12] out[13] 
+ out[14] out[15] out[16] out[17] out[18] out[19] out[20] out[21] out[22] out[23] 
+ out[24] out[25] out[26] out[27] out[28] out[29] out[30] out[31] clk comp_in rst VSS VDD 
XFE_PHC34_n_65 n_65 VSS VSS VDD VDD FE_PHN34_n_65 sky130_fd_sc_hd__dlygate4sd2_1
XFE_PHC33_comp_in comp_in VSS VSS VDD VDD FE_PHN33_comp_in sky130_fd_sc_hd__clkbuf_2
XFE_PHC32_rst rst VSS VSS VDD VDD FE_PHN32_rst sky130_fd_sc_hd__clkbuf_2 
XCTS_ccl_a_buf_00004 clk VSS VSS VDD VDD CTS_2 sky130_fd_sc_hd__clkbuf_1 
XCTS_ccl_a_buf_00003 clk VSS VSS VDD VDD CTS_1 sky130_fd_sc_hd__clkbuf_1 
XCTS_ccl_a_buf_00002 clk VSS VSS VDD VDD CTS_5 sky130_fd_sc_hd__clkbuf_1 
XCTS_ccl_a_buf_00001 clk VSS VSS VDD VDD CTS_4 sky130_fd_sc_hd__clkbuf_1  
XFE_OFC31_out_0 FE_OFN31_out_0 VSS VSS VDD VDD out[0] sky130_fd_sc_hd__buf_8 
XFE_OFC30_out_1 FE_OFN30_out_1 VSS VSS VDD VDD out[1] sky130_fd_sc_hd__buf_8 
XFE_OFC29_out_2 FE_OFN29_out_2 VSS VSS VDD VDD out[2] sky130_fd_sc_hd__buf_8  
XFE_OFC28_out_3 FE_OFN28_out_3 VSS VSS VDD VDD out[3] sky130_fd_sc_hd__buf_8  
XFE_OFC27_out_4 FE_OFN27_out_4 VSS VSS VDD VDD out[4] sky130_fd_sc_hd__buf_8  
XFE_OFC26_out_5 FE_OFN26_out_5 VSS VSS VDD VDD out[5] sky130_fd_sc_hd__buf_8  
XFE_OFC25_out_6 FE_OFN25_out_6 VSS VSS VDD VDD out[6] sky130_fd_sc_hd__buf_8 
XFE_OFC24_out_7 FE_OFN24_out_7 VSS VSS VDD VDD out[7] sky130_fd_sc_hd__buf_8  
XFE_OFC23_out_8 FE_OFN23_out_8 VSS VSS VDD VDD out[8] sky130_fd_sc_hd__buf_8 
XFE_OFC22_out_9 FE_OFN22_out_9 VSS VSS VDD VDD out[9] sky130_fd_sc_hd__buf_8 
XFE_OFC21_out_10 FE_OFN21_out_10 VSS VSS VDD VDD out[10] sky130_fd_sc_hd__buf_8 
XFE_OFC20_out_11 FE_OFN20_out_11 VSS VSS VDD VDD out[11] sky130_fd_sc_hd__buf_8 
XFE_OFC19_out_12 FE_OFN19_out_12 VSS VSS VDD VDD out[12] sky130_fd_sc_hd__buf_8  
XFE_OFC18_out_13 FE_OFN18_out_13 VSS VSS VDD VDD out[13] sky130_fd_sc_hd__buf_8 
XFE_OFC17_out_14 FE_OFN17_out_14 VSS VSS VDD VDD out[14] sky130_fd_sc_hd__buf_8
XFE_OFC16_out_15 FE_OFN16_out_15 VSS VSS VDD VDD out[15] sky130_fd_sc_hd__buf_8 
XFE_OFC15_out_16 FE_OFN15_out_16 VSS VSS VDD VDD out[16] sky130_fd_sc_hd__buf_8 
XFE_OFC14_out_17 FE_OFN14_out_17 VSS VSS VDD VDD out[17] sky130_fd_sc_hd__buf_8 
XFE_OFC13_out_18 FE_OFN13_out_18 VSS VSS VDD VDD out[18] sky130_fd_sc_hd__buf_8
XFE_OFC12_out_19 FE_OFN12_out_19 VSS VSS VDD VDD out[19] sky130_fd_sc_hd__buf_8 
XFE_OFC11_out_20 FE_OFN11_out_20 VSS VSS VDD VDD out[20] sky130_fd_sc_hd__buf_8 
XFE_OFC10_out_21 FE_OFN10_out_21 VSS VSS VDD VDD out[21] sky130_fd_sc_hd__buf_8
XFE_OFC9_out_22 FE_OFN9_out_22 VSS VSS VDD VDD out[22] sky130_fd_sc_hd__buf_8
XFE_OFC8_out_23 FE_OFN8_out_23 VSS VSS VDD VDD out[23] sky130_fd_sc_hd__buf_8
XFE_OFC7_out_24 FE_OFN7_out_24 VSS VSS VDD VDD out[24] sky130_fd_sc_hd__buf_8 
XFE_OFC6_out_25 FE_OFN6_out_25 VSS VSS VDD VDD out[25] sky130_fd_sc_hd__buf_8
XFE_OFC5_out_26 FE_OFN5_out_26 VSS VSS VDD VDD out[26] sky130_fd_sc_hd__buf_8 
XFE_OFC4_out_27 FE_OFN4_out_27 VSS VSS VDD VDD out[27] sky130_fd_sc_hd__buf_8
XFE_OFC3_out_28 FE_OFN3_out_28 VSS VSS VDD VDD out[28] sky130_fd_sc_hd__buf_8  
XFE_OFC2_out_29 FE_OFN2_out_29 VSS VSS VDD VDD out[29] sky130_fd_sc_hd__buf_8 
XFE_OFC1_out_30 FE_OFN1_out_30 VSS VSS VDD VDD out[30] sky130_fd_sc_hd__buf_8
XFE_OFC0_out_31 FE_OFN0_out_31 VSS VSS VDD VDD out[31] sky130_fd_sc_hd__buf_8
Xpass_reg[30] CTS_5 FE_PHN34_n_65 VSS VSS VDD VDD FE_OFN1_out_30 sky130_fd_sc_hd__dfxtp_1  
Xg525__2398 FE_OFN0_out_31 n_62 FE_OFN2_out_29 comp_in rst VSS VSS VDD VDD n_65 sky130_fd_sc_hd__a221o_1 
Xpass_reg[21] CTS_2 n_61 VSS VSS VDD VDD FE_OFN10_out_21 sky130_fd_sc_hd__dfxtp_1
Xpass_reg[14] CTS_1 n_52 VSS VSS VDD VDD FE_OFN17_out_14 sky130_fd_sc_hd__dfxtp_1 
Xpass_reg[1] CTS_4 n_55 VSS VSS VDD VDD FE_OFN30_out_1 sky130_fd_sc_hd__dfxtp_1 
Xpass_reg[18] CTS_4 n_35 VSS VSS VDD VDD FE_OFN13_out_18 sky130_fd_sc_hd__dfxtp_1  
Xpass_reg[19] CTS_4 n_56 VSS VSS VDD VDD FE_OFN12_out_19 sky130_fd_sc_hd__dfxtp_1
Xpass_reg[20] CTS_4 n_53 VSS VSS VDD VDD FE_OFN11_out_20 sky130_fd_sc_hd__dfxtp_1 
Xpass_reg[7] CTS_2 n_44 VSS VSS VDD VDD FE_OFN24_out_7 sky130_fd_sc_hd__dfxtp_1 
Xpass_reg[17] CTS_4 n_46 VSS VSS VDD VDD FE_OFN14_out_17 sky130_fd_sc_hd__dfxtp_1 
Xpass_reg[22] CTS_2 n_47 VSS VSS VDD VDD FE_OFN9_out_22 sky130_fd_sc_hd__dfxtp_1
Xpass_reg[10] CTS_1 n_43 VSS VSS VDD VDD FE_OFN21_out_10 sky130_fd_sc_hd__dfxtp_1 
Xpass_reg[8] CTS_1 n_41 VSS VSS VDD VDD FE_OFN23_out_8 sky130_fd_sc_hd__dfxtp_1 
Xpass_reg[23] CTS_2 n_39 VSS VSS VDD VDD FE_OFN8_out_23 sky130_fd_sc_hd__dfxtp_1 
Xpass_reg[24] CTS_2 n_38 VSS VSS VDD VDD FE_OFN7_out_24 sky130_fd_sc_hd__dfxtp_1
Xpass_reg[25] CTS_1 n_36 VSS VSS VDD VDD FE_OFN6_out_25 sky130_fd_sc_hd__dfxtp_1
Xpass_reg[26] CTS_1 n_42 VSS VSS VDD VDD FE_OFN5_out_26 sky130_fd_sc_hd__dfxtp_1 
Xpass_reg[6] CTS_2 n_40 VSS VSS VDD VDD FE_OFN25_out_6 sky130_fd_sc_hd__dfxtp_1
Xpass_reg[3] CTS_4 n_54 VSS VSS VDD VDD FE_OFN28_out_3 sky130_fd_sc_hd__dfxtp_1
Xpass_reg[5] CTS_2 n_45 VSS VSS VDD VDD FE_OFN26_out_5 sky130_fd_sc_hd__dfxtp_1
Xpass_reg[29] CTS_5 n_57 VSS VSS VDD VDD FE_OFN2_out_29 sky130_fd_sc_hd__dfxtp_1 
Xpass_reg[11] CTS_1 n_58 VSS VSS VDD VDD FE_OFN20_out_11 sky130_fd_sc_hd__dfxtp_1 
Xpass_reg[9] CTS_1 n_59 VSS VSS VDD VDD FE_OFN22_out_9 sky130_fd_sc_hd__dfxtp_1
Xpass_reg[27] CTS_5 n_34 VSS VSS VDD VDD FE_OFN4_out_27 sky130_fd_sc_hd__dfxtp_1
Xpass_reg[28] CTS_5 n_37 VSS VSS VDD VDD FE_OFN3_out_28 sky130_fd_sc_hd__dfxtp_1
Xpass_reg[12] CTS_5 n_50 VSS VSS VDD VDD FE_OFN19_out_12 sky130_fd_sc_hd__dfxtp_1  
Xpass_reg[13] CTS_5 n_63 VSS VSS VDD VDD FE_OFN18_out_13 sky130_fd_sc_hd__dfxtp_1
Xpass_reg[4] CTS_2 n_51 VSS VSS VDD VDD FE_OFN27_out_4 sky130_fd_sc_hd__dfxtp_1
Xpass_reg[15] CTS_1 n_49 VSS VSS VDD VDD FE_OFN16_out_15 sky130_fd_sc_hd__dfxtp_1
Xpass_reg[16] CTS_4 n_48 VSS VSS VDD VDD FE_OFN15_out_16 sky130_fd_sc_hd__dfxtp_1 
Xpass_reg[2] CTS_4 n_60 VSS VSS VDD VDD FE_OFN29_out_2 sky130_fd_sc_hd__dfxtp_1 
Xpass_reg[31] CTS_5 n_33 VSS VSS VDD VDD FE_OFN0_out_31 sky130_fd_sc_hd__dfxtp_1
Xg578__5107 FE_OFN17_out_14 n_62 FE_OFN19_out_12 FE_PHN33_comp_in FE_PHN32_rst VSS VSS VDD VDD n_63 sky130_fd_sc_hd__a221o_1 
Xg556__6260 FE_OFN9_out_22 n_62 FE_OFN11_out_20 FE_PHN33_comp_in FE_PHN32_rst VSS VSS VDD VDD n_61 sky130_fd_sc_hd__a221o_1 
Xg575__4319 FE_OFN28_out_3 n_62 FE_OFN30_out_1 FE_PHN33_comp_in FE_PHN32_rst VSS VSS VDD VDD n_60 sky130_fd_sc_hd__a221o_1
Xg557__8428 FE_OFN21_out_10 n_62 FE_OFN23_out_8 FE_PHN33_comp_in FE_PHN32_rst VSS VSS VDD VDD n_59 sky130_fd_sc_hd__a221o_1
Xg576__5526 FE_OFN19_out_12 n_62 FE_OFN21_out_10 FE_PHN33_comp_in FE_PHN32_rst VSS VSS VDD VDD n_58 sky130_fd_sc_hd__a221o_1
Xg577__6783 FE_OFN1_out_30 n_62 FE_OFN3_out_28 FE_PHN33_comp_in FE_PHN32_rst VSS VSS VDD VDD n_57 sky130_fd_sc_hd__a221o_1
Xg558__3680 FE_OFN11_out_20 n_62 FE_OFN13_out_18 FE_PHN33_comp_in FE_PHN32_rst VSS VSS VDD VDD n_56 sky130_fd_sc_hd__a221o_1
Xg574__1617 FE_OFN29_out_2 n_62 FE_OFN31_out_0 FE_PHN33_comp_in FE_PHN32_rst VSS VSS VDD VDD n_55 sky130_fd_sc_hd__a221o_1
Xg579__2802 FE_OFN27_out_4 n_62 FE_OFN29_out_2 FE_PHN33_comp_in FE_PHN32_rst VSS VSS VDD VDD n_54 sky130_fd_sc_hd__a221o_1 
Xg559__1705 FE_OFN10_out_21 n_62 FE_OFN12_out_19 FE_PHN33_comp_in FE_PHN32_rst VSS VSS VDD VDD n_53 sky130_fd_sc_hd__a221o_1
Xg580__5122 FE_OFN16_out_15 n_62 FE_OFN18_out_13 FE_PHN33_comp_in FE_PHN32_rst VSS VSS VDD VDD n_52 sky130_fd_sc_hd__a221o_1
Xg581__8246 FE_OFN26_out_5 n_62 FE_OFN28_out_3 FE_PHN33_comp_in FE_PHN32_rst VSS VSS VDD VDD n_51 sky130_fd_sc_hd__a221o_1
Xg560__7098 FE_OFN18_out_13 n_62 FE_OFN20_out_11 FE_PHN33_comp_in FE_PHN32_rst VSS VSS VDD VDD n_50 sky130_fd_sc_hd__a221o_1
Xg582__6131 FE_OFN15_out_16 n_62 FE_OFN17_out_14 FE_PHN33_comp_in FE_PHN32_rst VSS VSS VDD VDD n_49 sky130_fd_sc_hd__a221o_1
Xg583__1881 FE_OFN14_out_17 n_62 FE_OFN16_out_15 FE_PHN33_comp_in FE_PHN32_rst VSS VSS VDD VDD n_48 sky130_fd_sc_hd__a221o_1
Xg565__5115 FE_OFN8_out_23 n_62 FE_OFN10_out_21 FE_PHN33_comp_in FE_PHN32_rst VSS VSS VDD VDD n_47 sky130_fd_sc_hd__a221o_1
Xg584__7482 FE_OFN13_out_18 n_62 FE_OFN15_out_16 FE_PHN33_comp_in FE_PHN32_rst VSS VSS VDD VDD n_46 sky130_fd_sc_hd__a221o_1
Xg585__4733 FE_OFN25_out_6 n_62 FE_OFN27_out_4 FE_PHN33_comp_in FE_PHN32_rst VSS VSS VDD VDD n_45 sky130_fd_sc_hd__a221o_1
Xg562__6161 FE_OFN23_out_8 n_62 FE_OFN25_out_6 FE_PHN33_comp_in FE_PHN32_rst VSS VSS VDD VDD n_44 sky130_fd_sc_hd__a221o_1
Xg586__9315 FE_OFN20_out_11 n_62 FE_OFN22_out_9 FE_PHN33_comp_in FE_PHN32_rst VSS VSS VDD VDD n_43 sky130_fd_sc_hd__a221o_1
Xg563__9945 FE_OFN4_out_27 n_62 FE_OFN6_out_25 FE_PHN33_comp_in FE_PHN32_rst VSS VSS VDD VDD n_42 sky130_fd_sc_hd__a221o_1
Xg564__2883 FE_OFN22_out_9 n_62 FE_OFN24_out_7 FE_PHN33_comp_in FE_PHN32_rst VSS VSS VDD VDD n_41 sky130_fd_sc_hd__a221o_1
Xg561__2346 FE_OFN24_out_7 n_62 FE_OFN26_out_5 FE_PHN33_comp_in FE_PHN32_rst VSS VSS VDD VDD n_40 sky130_fd_sc_hd__a221o_1
Xg566__1666 FE_OFN7_out_24 n_62 FE_OFN9_out_22 FE_PHN33_comp_in FE_PHN32_rst VSS VSS VDD VDD n_39 sky130_fd_sc_hd__a221o_1
Xg567__7410 FE_OFN6_out_25 n_62 FE_OFN8_out_23 FE_PHN33_comp_in FE_PHN32_rst VSS VSS VDD VDD n_38 sky130_fd_sc_hd__a221o_1 
Xg573__6417 FE_OFN2_out_29 n_62 FE_OFN4_out_27 FE_PHN33_comp_in FE_PHN32_rst VSS VSS VDD VDD n_37 sky130_fd_sc_hd__a221o_1 
Xg568__5477 FE_OFN5_out_26 n_62 FE_OFN7_out_24 FE_PHN33_comp_in FE_PHN32_rst VSS VSS VDD VDD n_36 sky130_fd_sc_hd__a221o_1
Xg571__2398 FE_OFN12_out_19 n_62 FE_OFN14_out_17 FE_PHN33_comp_in FE_PHN32_rst VSS VSS VDD VDD n_35 sky130_fd_sc_hd__a221o_1
Xg572__5107 FE_OFN3_out_28 n_62 FE_OFN5_out_26 FE_PHN33_comp_in FE_PHN32_rst VSS VSS VDD VDD n_34 sky130_fd_sc_hd__a221o_1
Xpass_reg[0] CTS_4 n_32 VSS VSS VDD VDD FE_OFN31_out_0 sky130_fd_sc_hd__dfxtp_1
Xg587__6260 FE_OFN1_out_30 FE_PHN33_comp_in FE_PHN32_rst VSS VSS VDD VDD n_33 sky130_fd_sc_hd__a21o_1
Xg588__4319 FE_PHN33_comp_in FE_PHN32_rst FE_OFN30_out_1 VSS VSS VDD VDD n_32 sky130_fd_sc_hd__or3_1 
Xg604 comp_in VSS VSS VDD VDD n_62 sky130_fd_sc_hd__inv_2 
XFILLER_AO_T_0_1 VSS VSS VDD VDD sky130_fd_sc_hd__decap_6 
XFILLER_AO_T_0_2 VSS VSS VDD VDD sky130_fd_sc_hd__decap_3
XFILLER_AO_T_0_3 VSS VSS VDD VDD sky130_fd_sc_hd__decap_12
XFILLER_AO_T_0_4 VSS VSS VDD VDD sky130_fd_sc_hd__decap_12
XFILLER_AO_T_0_5 VSS VSS VDD VDD sky130_fd_sc_hd__decap_4
XFILLER_AO_T_0_6 VSS VSS VDD VDD sky130_fd_sc_hd__decap_3
XFILLER_AO_T_0_7 VSS VSS VDD VDD sky130_fd_sc_hd__decap_12
XFILLER_AO_T_0_8 VSS VSS VDD VDD sky130_fd_sc_hd__decap_4
XFILLER_AO_T_0_9 VSS VSS VDD VDD sky130_fd_sc_hd__decap_3
XFILLER_AO_T_0_10 VSS VSS VDD VDD sky130_fd_sc_hd__decap_4
XFILLER_AO_T_0_11 VSS VSS VDD VDD sky130_fd_sc_hd__decap_3
XFILLER_AO_T_0_12 VSS VSS VDD VDD sky130_fd_sc_hd__decap_12
XFILLER_AO_T_0_13 VSS VSS VDD VDD sky130_fd_sc_hd__decap_4
XFILLER_AO_T_0_14 VSS VSS VDD VDD sky130_fd_sc_hd__decap_3
XFILLER_AO_T_0_15 VSS VSS VDD VDD sky130_fd_sc_hd__decap_12
XFILLER_AO_T_0_16 VSS VSS VDD VDD sky130_fd_sc_hd__decap_4
XFILLER_AO_T_0_17 VSS VSS VDD VDD sky130_fd_sc_hd__decap_3
XFILLER_AO_T_0_18 VSS VSS VDD VDD sky130_fd_sc_hd__decap_6
XFILLER_AO_T_0_19 VSS VSS VDD VDD sky130_fd_sc_hd__decap_12
XFILLER_AO_T_0_20 VSS VSS VDD VDD sky130_fd_sc_hd__decap_12
XFILLER_AO_T_0_21 VSS VSS VDD VDD sky130_fd_sc_hd__decap_4
XFILLER_AO_T_0_22 VSS VSS VDD VDD sky130_fd_sc_hd__decap_3
XFILLER_AO_T_0_23 VSS VSS VDD VDD sky130_fd_sc_hd__decap_12
XFILLER_AO_T_0_24 VSS VSS VDD VDD sky130_fd_sc_hd__decap_4
XFILLER_AO_T_0_25 VSS VSS VDD VDD sky130_fd_sc_hd__decap_3
XFILLER_AO_T_0_26 VSS VSS VDD VDD sky130_fd_sc_hd__decap_12
XFILLER_AO_T_0_27 VSS VSS VDD VDD sky130_fd_sc_hd__decap_4
XFILLER_AO_T_0_28 VSS VSS VDD VDD sky130_fd_sc_hd__decap_3
XFILLER_AO_T_0_29 VSS VSS VDD VDD sky130_fd_sc_hd__decap_8
XFILLER_AO_T_0_30 VSS VSS VDD VDD sky130_fd_sc_hd__decap_6
XFILLER_AO_T_0_31 VSS VSS VDD VDD sky130_fd_sc_hd__decap_3
XFILLER_AO_T_0_32 VSS VSS VDD VDD sky130_fd_sc_hd__decap_8
XFILLER_AO_T_0_33 VSS VSS VDD VDD sky130_fd_sc_hd__decap_6
XFILLER_AO_T_0_34 VSS VSS VDD VDD sky130_fd_sc_hd__decap_3
XFILLER_AO_T_0_35 VSS VSS VDD VDD sky130_fd_sc_hd__decap_12
XFILLER_AO_T_0_36 VSS VSS VDD VDD sky130_fd_sc_hd__decap_8
XFILLER_AO_T_0_37 VSS VSS VDD VDD sky130_fd_sc_hd__decap_6
XFILLER_AO_T_0_38 VSS VSS VDD VDD sky130_fd_sc_hd__decap_6
XFILLER_AO_T_0_39 VSS VSS VDD VDD sky130_fd_sc_hd__decap_3
XFILLER_AO_T_0_40 VSS VSS VDD VDD sky130_fd_sc_hd__decap_6
XFILLER_AO_T_0_41 VSS VSS VDD VDD sky130_fd_sc_hd__decap_3
XFILLER_AO_T_0_42 VSS VSS VDD VDD sky130_fd_sc_hd__decap_6
XFILLER_AO_T_0_43 VSS VSS VDD VDD sky130_fd_sc_hd__decap_4
XFILLER_AO_T_0_44 VSS VSS VDD VDD sky130_fd_sc_hd__decap_6
XFILLER_AO_T_0_45 VSS VSS VDD VDD sky130_fd_sc_hd__decap_6
XFILLER_AO_T_0_46 VSS VSS VDD VDD sky130_fd_sc_hd__decap_4
XFILLER_AO_T_0_47 VSS VSS VDD VDD sky130_fd_sc_hd__decap_3
XFILLER_AO_T_0_48 VSS VSS VDD VDD sky130_fd_sc_hd__decap_6
XFILLER_AO_T_0_49 VSS VSS VDD VDD sky130_fd_sc_hd__decap_6
XFILLER_AO_T_0_50 VSS VSS VDD VDD sky130_fd_sc_hd__decap_4
XFILLER_AO_T_0_51 VSS VSS VDD VDD sky130_fd_sc_hd__decap_3
XFILLER_AO_T_0_52 VSS VSS VDD VDD sky130_fd_sc_hd__decap_3
XFILLER_AO_T_0_53 VSS VSS VDD VDD sky130_fd_sc_hd__decap_3
XFILLER_AO_T_0_54 VSS VSS VDD VDD sky130_fd_sc_hd__decap_12
XFILLER_AO_T_0_55 VSS VSS VDD VDD sky130_fd_sc_hd__decap_12
XFILLER_AO_T_0_56 VSS VSS VDD VDD sky130_fd_sc_hd__decap_4
XFILLER_AO_T_0_57 VSS VSS VDD VDD sky130_fd_sc_hd__decap_3
XFILLER_AO_T_0_58 VSS VSS VDD VDD sky130_fd_sc_hd__decap_6
XFILLER_AO_T_0_59 VSS VSS VDD VDD sky130_fd_sc_hd__decap_3
XFILLER_AO_T_0_60 VSS VSS VDD VDD sky130_fd_sc_hd__decap_8
XFILLER_AO_T_0_61 VSS VSS VDD VDD sky130_fd_sc_hd__decap_6
XFILLER_AO_T_0_62 VSS VSS VDD VDD sky130_fd_sc_hd__decap_3
XFILLER_AO_T_0_63 VSS VSS VDD VDD sky130_fd_sc_hd__decap_4
XFILLER_AO_T_0_64 VSS VSS VDD VDD sky130_fd_sc_hd__decap_12
XFILLER_AO_T_0_65 VSS VSS VDD VDD sky130_fd_sc_hd__decap_8
XFILLER_AO_T_0_66 VSS VSS VDD VDD sky130_fd_sc_hd__decap_3
XFILLER_AO_T_0_67 VSS VSS VDD VDD sky130_fd_sc_hd__decap_3
XFILLER_AO_T_0_68 VSS VSS VDD VDD sky130_fd_sc_hd__decap_12
XFILLER_AO_T_0_69 VSS VSS VDD VDD sky130_fd_sc_hd__decap_12
XFILLER_AO_T_0_70 VSS VSS VDD VDD sky130_fd_sc_hd__decap_4
XFILLER_AO_T_0_71 VSS VSS VDD VDD sky130_fd_sc_hd__decap_3
XFILLER_AO_T_0_72 VSS VSS VDD VDD sky130_fd_sc_hd__decap_12
XFILLER_AO_T_0_73 VSS VSS VDD VDD sky130_fd_sc_hd__decap_8
XFILLER_AO_T_0_74 VSS VSS VDD VDD sky130_fd_sc_hd__decap_3
XFILLER_AO_T_0_75 VSS VSS VDD VDD sky130_fd_sc_hd__decap_12
XFILLER_AO_T_0_76 VSS VSS VDD VDD sky130_fd_sc_hd__decap_8
XFILLER_AO_T_0_77 VSS VSS VDD VDD sky130_fd_sc_hd__decap_6
XFILLER_AO_T_0_78 VSS VSS VDD VDD sky130_fd_sc_hd__decap_6
XFILLER_AO_T_0_79 VSS VSS VDD VDD sky130_fd_sc_hd__decap_3
XFILLER_AO_T_0_80 VSS VSS VDD VDD sky130_fd_sc_hd__decap_6
XFILLER_AO_T_0_81 VSS VSS VDD VDD sky130_fd_sc_hd__decap_3
XFILLER_AO_T_0_82 VSS VSS VDD VDD sky130_fd_sc_hd__decap_6
XFILLER_AO_T_0_83 VSS VSS VDD VDD sky130_fd_sc_hd__decap_4
XFILLER_AO_T_0_84 VSS VSS VDD VDD sky130_fd_sc_hd__decap_6
XFILLER_AO_T_0_85 VSS VSS VDD VDD sky130_fd_sc_hd__decap_4
XFILLER_AO_T_0_86 VSS VSS VDD VDD sky130_fd_sc_hd__decap_3
XFILLER_AO_T_0_87 VSS VSS VDD VDD sky130_fd_sc_hd__decap_4
XFILLER_AO_T_0_88 VSS VSS VDD VDD sky130_fd_sc_hd__decap_3
XFILLER_AO_T_0_89 VSS VSS VDD VDD sky130_fd_sc_hd__decap_4
XFILLER_AO_T_0_90 VSS VSS VDD VDD sky130_fd_sc_hd__decap_4
XFILLER_AO_T_0_91 VSS VSS VDD VDD sky130_fd_sc_hd__decap_3
XFILLER_AO_T_0_92 VSS VSS VDD VDD sky130_fd_sc_hd__decap_6
XFILLER_AO_T_0_93 VSS VSS VDD VDD sky130_fd_sc_hd__decap_4
XFILLER_AO_T_0_94 VSS VSS VDD VDD sky130_fd_sc_hd__decap_3
XFILLER_AO_T_0_95 VSS VSS VDD VDD sky130_fd_sc_hd__decap_6
XFILLER_AO_T_0_96 VSS VSS VDD VDD sky130_fd_sc_hd__decap_4
XFILLER_AO_T_0_97 VSS VSS VDD VDD sky130_fd_sc_hd__decap_3
XFILLER_AO_T_0_98 VSS VSS VDD VDD sky130_fd_sc_hd__decap_6
XFILLER_AO_T_0_99 VSS VSS VDD VDD sky130_fd_sc_hd__decap_4
XFILLER_AO_T_0_100 VSS VSS VDD VDD sky130_fd_sc_hd__decap_4
XFILLER_AO_T_0_101 VSS VSS VDD VDD sky130_fd_sc_hd__decap_3
XFILLER_AO_T_0_102 VSS VSS VDD VDD sky130_fd_sc_hd__decap_4
XFILLER_AO_T_0_103 VSS VSS VDD VDD sky130_fd_sc_hd__decap_6
XFILLER_AO_T_0_104 VSS VSS VDD VDD sky130_fd_sc_hd__decap_3
XFILLER_AO_T_0_105 VSS VSS VDD VDD sky130_fd_sc_hd__decap_6
XFILLER_AO_T_0_106 VSS VSS VDD VDD sky130_fd_sc_hd__decap_4
XFILLER_AO_T_0_107 VSS VSS VDD VDD sky130_fd_sc_hd__decap_3
XFILLER_AO_T_0_108 VSS VSS VDD VDD sky130_fd_sc_hd__decap_3
XFILLER_AO_T_0_109 VSS VSS VDD VDD sky130_fd_sc_hd__decap_8
XFILLER_AO_T_0_110 VSS VSS VDD VDD sky130_fd_sc_hd__decap_6
XFILLER_AO_T_0_111 VSS VSS VDD VDD sky130_fd_sc_hd__decap_6
XFILLER_AO_T_0_112 VSS VSS VDD VDD sky130_fd_sc_hd__decap_3
XFILLER_AO_T_0_113 VSS VSS VDD VDD sky130_fd_sc_hd__decap_12
XFILLER_AO_T_0_114 VSS VSS VDD VDD sky130_fd_sc_hd__decap_12
XFILLER_AO_T_0_115 VSS VSS VDD VDD sky130_fd_sc_hd__decap_4
XFILLER_AO_T_0_116 VSS VSS VDD VDD sky130_fd_sc_hd__decap_3
XFILLER_AO_T_0_117 VSS VSS VDD VDD sky130_fd_sc_hd__decap_12
XFILLER_AO_T_0_118 VSS VSS VDD VDD sky130_fd_sc_hd__decap_12
XFILLER_AO_T_0_119 VSS VSS VDD VDD sky130_fd_sc_hd__decap_4
XFILLER_AO_T_0_120 VSS VSS VDD VDD sky130_fd_sc_hd__decap_3
XFILLER_AO_T_0_121 VSS VSS VDD VDD sky130_fd_sc_hd__decap_8
XFILLER_AO_T_0_122 VSS VSS VDD VDD sky130_fd_sc_hd__decap_3
XFILLER_AO_T_0_123 VSS VSS VDD VDD sky130_fd_sc_hd__decap_4
XFILLER_AO_T_0_124 VSS VSS VDD VDD sky130_fd_sc_hd__decap_4
XFILLER_AO_T_0_125 VSS VSS VDD VDD sky130_fd_sc_hd__decap_3
XFILLER_AO_T_0_126 VSS VSS VDD VDD sky130_fd_sc_hd__decap_3
XFILLER_AO_T_0_127 VSS VSS VDD VDD sky130_fd_sc_hd__decap_4
XFILLER_AO_T_0_128 VSS VSS VDD VDD sky130_fd_sc_hd__decap_8
XFILLER_AO_T_0_129 VSS VSS VDD VDD sky130_fd_sc_hd__decap_3
XFILLER_AO_T_0_130 VSS VSS VDD VDD sky130_fd_sc_hd__decap_4
XFILLER_AO_T_0_131 VSS VSS VDD VDD sky130_fd_sc_hd__decap_6
XFILLER_AO_T_0_132 VSS VSS VDD VDD sky130_fd_sc_hd__decap_4
XFILLER_AO_T_0_133 VSS VSS VDD VDD sky130_fd_sc_hd__decap_3
XFILLER_AO_T_0_134 VSS VSS VDD VDD sky130_fd_sc_hd__decap_6
XFILLER_AO_T_0_135 VSS VSS VDD VDD sky130_fd_sc_hd__decap_12
XFILLER_AO_T_0_136 VSS VSS VDD VDD sky130_fd_sc_hd__decap_3
XFILLER_AO_T_0_137 VSS VSS VDD VDD sky130_fd_sc_hd__decap_3
XFILLER_AO_T_0_138 VSS VSS VDD VDD sky130_fd_sc_hd__decap_12
XFILLER_AO_T_0_139 VSS VSS VDD VDD sky130_fd_sc_hd__decap_3
XFILLER_AO_T_0_140 VSS VSS VDD VDD sky130_fd_sc_hd__decap_4
XFILLER_AO_T_0_141 VSS VSS VDD VDD sky130_fd_sc_hd__decap_12
XFILLER_AO_T_0_142 VSS VSS VDD VDD sky130_fd_sc_hd__decap_8
  
XFILLER_AO_T_0_143 VSS VSS VDD VDD sky130_fd_sc_hd__decap_6
  
XFILLER_AO_T_0_144 VSS VSS VDD VDD sky130_fd_sc_hd__decap_6
  
XFILLER_AO_T_0_145 VSS VSS VDD VDD sky130_fd_sc_hd__decap_3
  
XFILLER_AO_T_0_146 VSS VSS VDD VDD sky130_fd_sc_hd__decap_12
  
XFILLER_AO_T_0_147 VSS VSS VDD VDD sky130_fd_sc_hd__decap_12
  
XFILLER_AO_T_0_148 VSS VSS VDD VDD sky130_fd_sc_hd__decap_4
  
XFILLER_AO_T_0_149 VSS VSS VDD VDD sky130_fd_sc_hd__decap_3
  
XFILLER_AO_T_0_150 VSS VSS VDD VDD sky130_fd_sc_hd__decap_12
  
XFILLER_AO_T_0_151 VSS VSS VDD VDD sky130_fd_sc_hd__decap_12
  
XFILLER_AO_T_0_152 VSS VSS VDD VDD sky130_fd_sc_hd__decap_4
  
XFILLER_AO_T_0_153 VSS VSS VDD VDD sky130_fd_sc_hd__decap_3
  
XFILLER_AO_T_0_154 VSS VSS VDD VDD sky130_fd_sc_hd__decap_3
  
XFILLER_AO_T_0_155 VSS VSS VDD VDD sky130_fd_sc_hd__decap_4
  
XFILLER_AO_T_0_156 VSS VSS VDD VDD sky130_fd_sc_hd__decap_6
  
XFILLER_AO_T_0_157 VSS VSS VDD VDD sky130_fd_sc_hd__decap_4
  
XFILLER_AO_T_0_158 VSS VSS VDD VDD sky130_fd_sc_hd__decap_12
  
XFILLER_AO_T_0_159 VSS VSS VDD VDD sky130_fd_sc_hd__decap_12
  
XFILLER_AO_T_0_160 VSS VSS VDD VDD sky130_fd_sc_hd__decap_3
  
XFILLER_AO_T_0_161 VSS VSS VDD VDD sky130_fd_sc_hd__decap_12
  
XFILLER_AO_T_0_162 VSS VSS VDD VDD sky130_fd_sc_hd__decap_3
  
XFILLER_AO_T_0_163 VSS VSS VDD VDD sky130_fd_sc_hd__decap_8
  
XFILLER_AO_T_0_164 VSS VSS VDD VDD sky130_fd_sc_hd__decap_6
  
XFILLER_AO_T_0_165 VSS VSS VDD VDD sky130_fd_sc_hd__decap_8
  
XFILLER_AO_T_0_166 VSS VSS VDD VDD sky130_fd_sc_hd__decap_3
  
XFILLER_AO_T_0_167 VSS VSS VDD VDD sky130_fd_sc_hd__decap_6
  
XFILLER_AO_T_0_168 VSS VSS VDD VDD sky130_fd_sc_hd__decap_4
  
XFILLER_AO_T_0_169 VSS VSS VDD VDD sky130_fd_sc_hd__decap_3
  
XFILLER_AO_T_0_170 VSS VSS VDD VDD sky130_fd_sc_hd__decap_4
  
XFILLER_AO_T_0_171 VSS VSS VDD VDD sky130_fd_sc_hd__decap_3
  
XFILLER_AO_T_0_172 VSS VSS VDD VDD sky130_fd_sc_hd__decap_6
  
XFILLER_AO_T_0_173 VSS VSS VDD VDD sky130_fd_sc_hd__decap_4
  
XFILLER_AO_T_0_174 VSS VSS VDD VDD sky130_fd_sc_hd__decap_6
  
XFILLER_AO_T_0_175 VSS VSS VDD VDD sky130_fd_sc_hd__decap_3
  
XFILLER_AO_T_0_176 VSS VSS VDD VDD sky130_fd_sc_hd__decap_6
  
XFILLER_AO_T_0_177 VSS VSS VDD VDD sky130_fd_sc_hd__decap_4
  
XFILLER_AO_T_0_178 VSS VSS VDD VDD sky130_fd_sc_hd__decap_3
  
XFILLER_AO_T_0_179 VSS VSS VDD VDD sky130_fd_sc_hd__decap_6
  
XFILLER_AO_T_0_180 VSS VSS VDD VDD sky130_fd_sc_hd__decap_12
  
XFILLER_AO_T_0_181 VSS VSS VDD VDD sky130_fd_sc_hd__decap_12
  
XFILLER_AO_T_0_182 VSS VSS VDD VDD sky130_fd_sc_hd__decap_4
  
XFILLER_AO_T_0_183 VSS VSS VDD VDD sky130_fd_sc_hd__decap_3
  
XFILLER_AO_T_0_184 VSS VSS VDD VDD sky130_fd_sc_hd__decap_8
  
XFILLER_AO_T_0_185 VSS VSS VDD VDD sky130_fd_sc_hd__decap_3
XFILLER_AO_T_0_186 VSS VSS VDD VDD sky130_fd_sc_hd__decap_4
XFILLER_AO_T_0_187 VSS VSS VDD VDD sky130_fd_sc_hd__decap_8
XFILLER_AO_T_0_188 VSS VSS VDD VDD sky130_fd_sc_hd__decap_6
XFILLER_AO_T_0_189 VSS VSS VDD VDD sky130_fd_sc_hd__decap_3
XFILLER_AO_T_0_190 VSS VSS VDD VDD sky130_fd_sc_hd__decap_4
XFILLER_AO_T_0_191 VSS VSS VDD VDD sky130_fd_sc_hd__decap_3
XFILLER_AO_T_0_192 VSS VSS VDD VDD sky130_fd_sc_hd__decap_8
XFILLER_AO_T_0_193 VSS VSS VDD VDD sky130_fd_sc_hd__decap_3
XFILLER_AO_T_0_194 VSS VSS VDD VDD sky130_fd_sc_hd__decap_6
XFILLER_AO_T_0_195 VSS VSS VDD VDD sky130_fd_sc_hd__decap_4
XFILLER_AO_T_0_196 VSS VSS VDD VDD sky130_fd_sc_hd__decap_12
XFILLER_AO_T_0_197 VSS VSS VDD VDD sky130_fd_sc_hd__decap_8
XFILLER_AO_T_0_198 VSS VSS VDD VDD sky130_fd_sc_hd__decap_3
XFILLER_AO_T_0_199 VSS VSS VDD VDD sky130_fd_sc_hd__decap_12
XFILLER_AO_T_0_200 VSS VSS VDD VDD sky130_fd_sc_hd__decap_3
XFILLER_AO_T_0_201 VSS VSS VDD VDD sky130_fd_sc_hd__decap_8
XFILLER_AO_T_0_202 VSS VSS VDD VDD sky130_fd_sc_hd__decap_3
XFILLER_AO_T_0_203 VSS VSS VDD VDD sky130_fd_sc_hd__decap_12
XFILLER_AO_T_0_204 VSS VSS VDD VDD sky130_fd_sc_hd__decap_4
XFILLER_AO_T_0_205 VSS VSS VDD VDD sky130_fd_sc_hd__decap_4
XFILLER_AO_T_0_206 VSS VSS VDD VDD sky130_fd_sc_hd__decap_3
XFILLER_AO_T_0_207 VSS VSS VDD VDD sky130_fd_sc_hd__decap_12
XFILLER_AO_T_0_208 VSS VSS VDD VDD sky130_fd_sc_hd__decap_3
XFILLER_AO_T_0_209 VSS VSS VDD VDD sky130_fd_sc_hd__decap_6
XFILLER_AO_T_0_210 VSS VSS VDD VDD sky130_fd_sc_hd__decap_4
XFILLER_AO_T_0_211 VSS VSS VDD VDD sky130_fd_sc_hd__decap_4
XFILLER_AO_T_0_212 VSS VSS VDD VDD sky130_fd_sc_hd__decap_3
XFILLER_AO_T_0_213 VSS VSS VDD VDD sky130_fd_sc_hd__decap_4
XFILLER_AO_T_0_214 VSS VSS VDD VDD sky130_fd_sc_hd__decap_3
XFILLER_AO_T_0_215 VSS VSS VDD VDD sky130_fd_sc_hd__decap_6
XFILLER_AO_T_0_216 VSS VSS VDD VDD sky130_fd_sc_hd__decap_3
XFILLER_AO_T_0_217 VSS VSS VDD VDD sky130_fd_sc_hd__decap_12
XFILLER_AO_T_0_218 VSS VSS VDD VDD sky130_fd_sc_hd__decap_12
XFILLER_AO_T_0_219 VSS VSS VDD VDD sky130_fd_sc_hd__decap_4
XFILLER_AO_T_0_220 VSS VSS VDD VDD sky130_fd_sc_hd__decap_3
XFILLER_AO_T_0_221 VSS VSS VDD VDD sky130_fd_sc_hd__decap_12
XFILLER_AO_T_0_222 VSS VSS VDD VDD sky130_fd_sc_hd__decap_4
XFILLER_AO_T_0_223 VSS VSS VDD VDD sky130_fd_sc_hd__decap_3
XFILLER_AO_T_0_224 VSS VSS VDD VDD sky130_fd_sc_hd__decap_3
XFILLER_AO_T_0_225 VSS VSS VDD VDD sky130_fd_sc_hd__decap_12
XFILLER_AO_T_0_226 VSS VSS VDD VDD sky130_fd_sc_hd__decap_8
XFILLER_AO_T_0_227 VSS VSS VDD VDD sky130_fd_sc_hd__decap_4
XFILLER_AO_T_0_228 VSS VSS VDD VDD sky130_fd_sc_hd__decap_3
XFILLER_AO_T_0_229 VSS VSS VDD VDD sky130_fd_sc_hd__decap_12
XFILLER_AO_T_0_230 VSS VSS VDD VDD sky130_fd_sc_hd__decap_12
XFILLER_AO_T_0_231 VSS VSS VDD VDD sky130_fd_sc_hd__decap_4
XFILLER_AO_T_0_232 VSS VSS VDD VDD sky130_fd_sc_hd__decap_3  
XFILLER_AO_T_0_233 VSS VSS VDD VDD sky130_fd_sc_hd__decap_12
XFILLER_AO_T_0_234 VSS VSS VDD VDD sky130_fd_sc_hd__decap_12
XFILLER_AO_T_0_235 VSS VSS VDD VDD sky130_fd_sc_hd__decap_4
XFILLER_AO_T_0_236 VSS VSS VDD VDD sky130_fd_sc_hd__decap_3
XFILLER_AO_T_0_237 VSS VSS VDD VDD sky130_fd_sc_hd__decap_12
XFILLER_AO_T_0_238 VSS VSS VDD VDD sky130_fd_sc_hd__decap_12
XFILLER_AO_T_0_239 VSS VSS VDD VDD sky130_fd_sc_hd__decap_4
XFILLER_AO_T_0_240 VSS VSS VDD VDD sky130_fd_sc_hd__decap_3
XFILLER_AO_T_0_241 VSS VSS VDD VDD sky130_fd_sc_hd__decap_3
XFILLER_AO_T_0_242 VSS VSS VDD VDD sky130_fd_sc_hd__decap_3
XFILLER_AO_T_0_243 VSS VSS VDD VDD sky130_fd_sc_hd__decap_3
XFILLER_AO_T_0_244 VSS VSS VDD VDD sky130_fd_sc_hd__decap_6
XFILLER_AO_T_0_245 VSS VSS VDD VDD sky130_fd_sc_hd__decap_4
XFILLER_AO_T_0_246 VSS VSS VDD VDD sky130_fd_sc_hd__decap_12
XFILLER_AO_T_0_247 VSS VSS VDD VDD sky130_fd_sc_hd__decap_8
XFILLER_AO_T_0_248 VSS VSS VDD VDD sky130_fd_sc_hd__decap_3
XFILLER_AO_T_0_249 VSS VSS VDD VDD sky130_fd_sc_hd__decap_12
XFILLER_AO_T_0_250 VSS VSS VDD VDD sky130_fd_sc_hd__decap_12
XFILLER_AO_T_0_251 VSS VSS VDD VDD sky130_fd_sc_hd__decap_4
XFILLER_AO_T_0_252 VSS VSS VDD VDD sky130_fd_sc_hd__decap_3
XFILLER_AO_T_0_253 VSS VSS VDD VDD sky130_fd_sc_hd__decap_12
XFILLER_AO_T_0_254 VSS VSS VDD VDD sky130_fd_sc_hd__decap_8
XFILLER_AO_T_0_255 VSS VSS VDD VDD sky130_fd_sc_hd__decap_6
XFILLER_AO_T_0_256 VSS VSS VDD VDD sky130_fd_sc_hd__decap_6
XFILLER_AO_T_0_257 VSS VSS VDD VDD sky130_fd_sc_hd__decap_3
XFILLER_AO_T_0_258 VSS VSS VDD VDD sky130_fd_sc_hd__decap_12
XFILLER_AO_T_0_259 VSS VSS VDD VDD sky130_fd_sc_hd__decap_12
XFILLER_AO_T_0_260 VSS VSS VDD VDD sky130_fd_sc_hd__decap_4
XFILLER_AO_T_0_261 VSS VSS VDD VDD sky130_fd_sc_hd__decap_3
XFILLER_AO_T_0_262 VSS VSS VDD VDD sky130_fd_sc_hd__decap_12
XFILLER_AO_T_0_263 VSS VSS VDD VDD sky130_fd_sc_hd__decap_12
XFILLER_AO_T_0_264 VSS VSS VDD VDD sky130_fd_sc_hd__decap_4
XFILLER_AO_T_0_265 VSS VSS VDD VDD sky130_fd_sc_hd__decap_3
XFILLER_AO_T_0_266 VSS VSS VDD VDD sky130_fd_sc_hd__decap_3
XFILLER_AO_T_0_267 VSS VSS VDD VDD sky130_fd_sc_hd__decap_12
XFILLER_AO_T_0_268 VSS VSS VDD VDD sky130_fd_sc_hd__decap_8
XFILLER_AO_T_0_269 VSS VSS VDD VDD sky130_fd_sc_hd__decap_12
XFILLER_AO_T_0_270 VSS VSS VDD VDD sky130_fd_sc_hd__decap_3
XFILLER_AO_T_0_271 VSS VSS VDD VDD sky130_fd_sc_hd__decap_6
XFILLER_AO_T_0_272 VSS VSS VDD VDD sky130_fd_sc_hd__decap_6
XFILLER_AO_T_0_273 VSS VSS VDD VDD sky130_fd_sc_hd__decap_3
XFILLER_AO_T_0_274 VSS VSS VDD VDD sky130_fd_sc_hd__decap_8
XFILLER_AO_T_0_275 VSS VSS VDD VDD sky130_fd_sc_hd__decap_3
XFILLER_AO_T_0_276 VSS VSS VDD VDD sky130_fd_sc_hd__decap_12
XFILLER_AO_T_0_277 VSS VSS VDD VDD sky130_fd_sc_hd__decap_12
XFILLER_AO_T_0_278 VSS VSS VDD VDD sky130_fd_sc_hd__decap_12
XFILLER_AO_T_0_279 VSS VSS VDD VDD sky130_fd_sc_hd__decap_4
XFILLER_AO_T_0_280 VSS VSS VDD VDD sky130_fd_sc_hd__decap_3
XFILLER_AO_T_0_281 VSS VSS VDD VDD sky130_fd_sc_hd__decap_3
XFILLER_AO_T_0_282 VSS VSS VDD VDD sky130_fd_sc_hd__decap_12
XFILLER_AO_T_0_283 VSS VSS VDD VDD sky130_fd_sc_hd__decap_8
XFILLER_AO_T_0_284 VSS VSS VDD VDD sky130_fd_sc_hd__decap_8
XFILLER_AO_T_0_285 VSS VSS VDD VDD sky130_fd_sc_hd__decap_3
XFILLER_AO_T_0_286 VSS VSS VDD VDD sky130_fd_sc_hd__decap_12
XFILLER_AO_T_0_287 VSS VSS VDD VDD sky130_fd_sc_hd__decap_12
XFILLER_AO_T_0_288 VSS VSS VDD VDD sky130_fd_sc_hd__decap_12
XFILLER_AO_T_0_289 VSS VSS VDD VDD sky130_fd_sc_hd__decap_4
XFILLER_AO_T_0_290 VSS VSS VDD VDD sky130_fd_sc_hd__decap_3
XFILLER_AO_T_0_291 VSS VSS VDD VDD sky130_fd_sc_hd__decap_12
XFILLER_AO_T_0_292 VSS VSS VDD VDD sky130_fd_sc_hd__decap_12
XFILLER_AO_T_0_293 VSS VSS VDD VDD sky130_fd_sc_hd__decap_4
XFILLER_AO_T_0_294 VSS VSS VDD VDD sky130_fd_sc_hd__decap_3
XFILLER_AO_T_0_295 VSS VSS VDD VDD sky130_fd_sc_hd__decap_12
XFILLER_AO_T_0_296 VSS VSS VDD VDD sky130_fd_sc_hd__decap_8
XFILLER_AO_T_0_297 VSS VSS VDD VDD sky130_fd_sc_hd__decap_6
XFILLER_AO_T_0_298 VSS VSS VDD VDD sky130_fd_sc_hd__decap_6
XFILLER_AO_T_0_299 VSS VSS VDD VDD sky130_fd_sc_hd__decap_3
XFILLER_AO_T_0_300 VSS VSS VDD VDD sky130_fd_sc_hd__decap_12
XFILLER_AO_T_0_301 VSS VSS VDD VDD sky130_fd_sc_hd__decap_12
XFILLER_AO_T_0_302 VSS VSS VDD VDD sky130_fd_sc_hd__decap_4
XFILLER_AO_T_0_303 VSS VSS VDD VDD sky130_fd_sc_hd__decap_3
XFILLER_AO_T_0_304 VSS VSS VDD VDD sky130_fd_sc_hd__decap_12
XFILLER_AO_T_0_305 VSS VSS VDD VDD sky130_fd_sc_hd__decap_12
XFILLER_AO_T_0_306 VSS VSS VDD VDD sky130_fd_sc_hd__decap_4
XFILLER_AO_T_0_307 VSS VSS VDD VDD sky130_fd_sc_hd__decap_3
XFILLER_AO_T_0_308 VSS VSS VDD VDD sky130_fd_sc_hd__decap_6
XFILLER_AO_T_0_309 VSS VSS VDD VDD sky130_fd_sc_hd__decap_3
XFILLER_AO_T_0_310 VSS VSS VDD VDD sky130_fd_sc_hd__decap_6
XFILLER_AO_T_0_311 VSS VSS VDD VDD sky130_fd_sc_hd__decap_12
XFILLER_AO_T_0_312 VSS VSS VDD VDD sky130_fd_sc_hd__decap_12
XFILLER_AO_T_0_313 VSS VSS VDD VDD sky130_fd_sc_hd__decap_4
XFILLER_AO_T_0_314 VSS VSS VDD VDD sky130_fd_sc_hd__decap_3
XFILLER_AO_T_0_315 VSS VSS VDD VDD sky130_fd_sc_hd__decap_12
XFILLER_AO_T_0_316 VSS VSS VDD VDD sky130_fd_sc_hd__decap_12
XFILLER_AO_T_0_317 VSS VSS VDD VDD sky130_fd_sc_hd__decap_4
XFILLER_AO_T_0_318 VSS VSS VDD VDD sky130_fd_sc_hd__decap_3
XFILLER_AO_T_0_319 VSS VSS VDD VDD sky130_fd_sc_hd__decap_12
XFILLER_AO_T_0_320 VSS VSS VDD VDD sky130_fd_sc_hd__decap_12
XFILLER_AO_T_0_321 VSS VSS VDD VDD sky130_fd_sc_hd__decap_4
XFILLER_AO_T_0_322 VSS VSS VDD VDD sky130_fd_sc_hd__decap_3
XFILLER_AO_T_0_323 VSS VSS VDD VDD sky130_fd_sc_hd__decap_12
XFILLER_AO_T_0_324 VSS VSS VDD VDD sky130_fd_sc_hd__decap_12
XFILLER_AO_T_0_325 VSS VSS VDD VDD sky130_fd_sc_hd__decap_4
XFILLER_AO_T_0_326 VSS VSS VDD VDD sky130_fd_sc_hd__decap_3
XFILLER_AO_T_0_327 VSS VSS VDD VDD sky130_fd_sc_hd__decap_12
XFILLER_AO_T_0_328 VSS VSS VDD VDD sky130_fd_sc_hd__decap_8
XFILLER_AO_T_0_329 VSS VSS VDD VDD sky130_fd_sc_hd__decap_6
XFILLER_AO_T_0_330 VSS VSS VDD VDD sky130_fd_sc_hd__decap_12