$ Spice netlist generated by v2lvs
$ v2024.3_16.10    Tue Jul 9 11:27:02 PDT 2024
.INCLUDE "/home/aa/users/cs199-apt/Downloads/sky130_fd_sc_hd.spice" 
*.BUSDELIMITER [ 

.SUBCKT DigitalLDOLogic clk rst comp_in out[255] out[254] out[253] out[252] 
+ out[251] out[250] out[249] out[248] out[247] out[246] out[245] out[244] 
+ out[243] out[242] out[241] out[240] out[239] out[238] out[237] out[236] 
+ out[235] out[234] out[233] out[232] out[231] out[230] out[229] out[228] 
+ out[227] out[226] out[225] out[224] out[223] out[222] out[221] out[220] 
+ out[219] out[218] out[217] out[216] out[215] out[214] out[213] out[212] 
+ out[211] out[210] out[209] out[208] out[207] out[206] out[205] out[204] 
+ out[203] out[202] out[201] out[200] out[199] out[198] out[197] out[196] 
+ out[195] out[194] out[193] out[192] out[191] out[190] out[189] out[188] 
+ out[187] out[186] out[185] out[184] out[183] out[182] out[181] out[180] 
+ out[179] out[178] out[177] out[176] out[175] out[174] out[173] out[172] 
+ out[171] out[170] out[169] out[168] out[167] out[166] out[165] out[164] 
+ out[163] out[162] out[161] out[160] out[159] out[158] out[157] out[156] 
+ out[155] out[154] out[153] out[152] out[151] out[150] out[149] out[148] 
+ out[147] out[146] out[145] out[144] out[143] out[142] out[141] out[140] 
+ out[139] out[138] out[137] out[136] out[135] out[134] out[133] out[132] 
+ out[131] out[130] out[129] out[128] out[127] out[126] out[125] out[124] 
+ out[123] out[122] out[121] out[120] out[119] out[118] out[117] out[116] 
+ out[115] out[114] out[113] out[112] out[111] out[110] out[109] out[108] 
+ out[107] out[106] out[105] out[104] out[103] out[102] out[101] out[100] 
+ out[99] out[98] out[97] out[96] out[95] out[94] out[93] out[92] out[91] 
+ out[90] out[89] out[88] out[87] out[86] out[85] out[84] out[83] out[82] 
+ out[81] out[80] out[79] out[78] out[77] out[76] out[75] out[74] out[73] 
+ out[72] out[71] out[70] out[69] out[68] out[67] out[66] out[65] out[64] 
+ out[63] out[62] out[61] out[60] out[59] out[58] out[57] out[56] out[55] 
+ out[54] out[53] out[52] out[51] out[50] out[49] out[48] out[47] out[46] 
+ out[45] out[44] out[43] out[42] out[41] out[40] out[39] out[38] out[37] 
+ out[36] out[35] out[34] out[33] out[32] out[31] out[30] out[29] out[28] 
+ out[27] out[26] out[25] out[24] out[23] out[22] out[21] out[20] out[19] 
+ out[18] out[17] out[16] out[15] out[14] out[13] out[12] out[11] out[10] 
+ out[9] out[8] out[7] out[6] out[5] out[4] out[3] out[2] out[1] out[0] VDD VSS 
Xpass_reg[254] clk n_513 VSS VSS VDD VDD pass[254] sky130_fd_sc_hd__dfxtp_1 
Xg4333__2398 pass[255] n_923 pass[253] n_521 n_713 VSS VSS VDD VDD n_513 
+ sky130_fd_sc_hd__a221o_1 
Xpass_reg[183] clk n_333 VSS VSS VDD VDD pass[183] sky130_fd_sc_hd__dfxtp_1 
Xpass_reg[49] clk n_326 VSS VSS VDD VDD pass[49] sky130_fd_sc_hd__dfxtp_1 
Xpass_reg[226] clk n_500 VSS VSS VDD VDD pass[226] sky130_fd_sc_hd__dfxtp_1 
Xpass_reg[4] clk n_400 VSS VSS VDD VDD pass[4] sky130_fd_sc_hd__dfxtp_1 
Xpass_reg[50] clk n_325 VSS VSS VDD VDD pass[50] sky130_fd_sc_hd__dfxtp_1 
Xpass_reg[51] clk n_492 VSS VSS VDD VDD pass[51] sky130_fd_sc_hd__dfxtp_1 
Xpass_reg[153] clk n_496 VSS VSS VDD VDD pass[153] sky130_fd_sc_hd__dfxtp_1 
Xpass_reg[154] clk n_495 VSS VSS VDD VDD pass[154] sky130_fd_sc_hd__dfxtp_1 
Xpass_reg[155] clk n_489 VSS VSS VDD VDD pass[155] sky130_fd_sc_hd__dfxtp_1 
Xpass_reg[143] clk n_346 VSS VSS VDD VDD pass[143] sky130_fd_sc_hd__dfxtp_1 
Xpass_reg[52] clk n_485 VSS VSS VDD VDD pass[52] sky130_fd_sc_hd__dfxtp_1 
Xpass_reg[156] clk n_483 VSS VSS VDD VDD pass[156] sky130_fd_sc_hd__dfxtp_1 
Xpass_reg[157] clk n_480 VSS VSS VDD VDD pass[157] sky130_fd_sc_hd__dfxtp_1 
Xpass_reg[140] clk n_350 VSS VSS VDD VDD pass[140] sky130_fd_sc_hd__dfxtp_1 
Xpass_reg[158] clk n_472 VSS VSS VDD VDD pass[158] sky130_fd_sc_hd__dfxtp_1 
Xpass_reg[53] clk n_477 VSS VSS VDD VDD pass[53] sky130_fd_sc_hd__dfxtp_1 
Xpass_reg[54] clk n_454 VSS VSS VDD VDD pass[54] sky130_fd_sc_hd__dfxtp_1 
Xpass_reg[138] clk n_355 VSS VSS VDD VDD pass[138] sky130_fd_sc_hd__dfxtp_1 
Xpass_reg[159] clk n_471 VSS VSS VDD VDD pass[159] sky130_fd_sc_hd__dfxtp_1 
Xpass_reg[160] clk n_468 VSS VSS VDD VDD pass[160] sky130_fd_sc_hd__dfxtp_1 
Xpass_reg[161] clk n_465 VSS VSS VDD VDD pass[161] sky130_fd_sc_hd__dfxtp_1 
Xpass_reg[55] clk n_461 VSS VSS VDD VDD pass[55] sky130_fd_sc_hd__dfxtp_1 
Xpass_reg[162] clk n_457 VSS VSS VDD VDD pass[162] sky130_fd_sc_hd__dfxtp_1 
Xpass_reg[163] clk n_448 VSS VSS VDD VDD pass[163] sky130_fd_sc_hd__dfxtp_1 
Xpass_reg[56] clk n_453 VSS VSS VDD VDD pass[56] sky130_fd_sc_hd__dfxtp_1 
Xpass_reg[41] clk n_364 VSS VSS VDD VDD pass[41] sky130_fd_sc_hd__dfxtp_1 
Xpass_reg[164] clk n_511 VSS VSS VDD VDD pass[164] sky130_fd_sc_hd__dfxtp_1 
Xpass_reg[57] clk n_429 VSS VSS VDD VDD pass[57] sky130_fd_sc_hd__dfxtp_1 
Xpass_reg[58] clk n_424 VSS VSS VDD VDD pass[58] sky130_fd_sc_hd__dfxtp_1 
Xpass_reg[40] clk n_373 VSS VSS VDD VDD pass[40] sky130_fd_sc_hd__dfxtp_1 
Xpass_reg[165] clk n_441 VSS VSS VDD VDD pass[165] sky130_fd_sc_hd__dfxtp_1 
Xpass_reg[166] clk n_437 VSS VSS VDD VDD pass[166] sky130_fd_sc_hd__dfxtp_1 
Xpass_reg[167] clk n_432 VSS VSS VDD VDD pass[167] sky130_fd_sc_hd__dfxtp_1 
Xpass_reg[39] clk n_378 VSS VSS VDD VDD pass[39] sky130_fd_sc_hd__dfxtp_1 
Xpass_reg[168] clk n_423 VSS VSS VDD VDD pass[168] sky130_fd_sc_hd__dfxtp_1 
Xpass_reg[59] clk n_406 VSS VSS VDD VDD pass[59] sky130_fd_sc_hd__dfxtp_1 
Xpass_reg[169] clk n_420 VSS VSS VDD VDD pass[169] sky130_fd_sc_hd__dfxtp_1 
Xpass_reg[170] clk n_413 VSS VSS VDD VDD pass[170] sky130_fd_sc_hd__dfxtp_1 
Xpass_reg[171] clk n_405 VSS VSS VDD VDD pass[171] sky130_fd_sc_hd__dfxtp_1 
Xpass_reg[60] clk n_399 VSS VSS VDD VDD pass[60] sky130_fd_sc_hd__dfxtp_1 
Xpass_reg[172] clk n_396 VSS VSS VDD VDD pass[172] sky130_fd_sc_hd__dfxtp_1 
Xpass_reg[122] clk n_392 VSS VSS VDD VDD pass[122] sky130_fd_sc_hd__dfxtp_1 
Xpass_reg[173] clk n_387 VSS VSS VDD VDD pass[173] sky130_fd_sc_hd__dfxtp_1 
Xpass_reg[174] clk n_381 VSS VSS VDD VDD pass[174] sky130_fd_sc_hd__dfxtp_1 
Xpass_reg[61] clk n_384 VSS VSS VDD VDD pass[61] sky130_fd_sc_hd__dfxtp_1 
Xpass_reg[120] clk n_395 VSS VSS VDD VDD pass[120] sky130_fd_sc_hd__dfxtp_1 
Xpass_reg[175] clk n_376 VSS VSS VDD VDD pass[175] sky130_fd_sc_hd__dfxtp_1 
Xpass_reg[176] clk n_358 VSS VSS VDD VDD pass[176] sky130_fd_sc_hd__dfxtp_1 
Xpass_reg[62] clk n_369 VSS VSS VDD VDD pass[62] sky130_fd_sc_hd__dfxtp_1 
Xpass_reg[33] clk n_398 VSS VSS VDD VDD pass[33] sky130_fd_sc_hd__dfxtp_1 
Xpass_reg[177] clk n_365 VSS VSS VDD VDD pass[177] sky130_fd_sc_hd__dfxtp_1 
Xpass_reg[5] clk n_372 VSS VSS VDD VDD pass[5] sky130_fd_sc_hd__dfxtp_1 
Xpass_reg[6] clk n_345 VSS VSS VDD VDD pass[6] sky130_fd_sc_hd__dfxtp_1 
Xpass_reg[63] clk n_361 VSS VSS VDD VDD pass[63] sky130_fd_sc_hd__dfxtp_1 
Xpass_reg[64] clk n_352 VSS VSS VDD VDD pass[64] sky130_fd_sc_hd__dfxtp_1 
Xpass_reg[178] clk n_357 VSS VSS VDD VDD pass[178] sky130_fd_sc_hd__dfxtp_1 
Xpass_reg[179] clk n_351 VSS VSS VDD VDD pass[179] sky130_fd_sc_hd__dfxtp_1 
Xpass_reg[112] clk n_415 VSS VSS VDD VDD pass[112] sky130_fd_sc_hd__dfxtp_1 
Xpass_reg[180] clk n_348 VSS VSS VDD VDD pass[180] sky130_fd_sc_hd__dfxtp_1 
Xpass_reg[65] clk n_339 VSS VSS VDD VDD pass[65] sky130_fd_sc_hd__dfxtp_1 
Xpass_reg[181] clk n_341 VSS VSS VDD VDD pass[181] sky130_fd_sc_hd__dfxtp_1 
Xpass_reg[109] clk n_421 VSS VSS VDD VDD pass[109] sky130_fd_sc_hd__dfxtp_1 
Xpass_reg[182] clk n_336 VSS VSS VDD VDD pass[182] sky130_fd_sc_hd__dfxtp_1 
Xpass_reg[152] clk n_259 VSS VSS VDD VDD pass[152] sky130_fd_sc_hd__dfxtp_1 
Xpass_reg[184] clk n_324 VSS VSS VDD VDD pass[184] sky130_fd_sc_hd__dfxtp_1 
Xpass_reg[106] clk n_430 VSS VSS VDD VDD pass[106] sky130_fd_sc_hd__dfxtp_1 
Xpass_reg[7] clk n_328 VSS VSS VDD VDD pass[7] sky130_fd_sc_hd__dfxtp_1 
Xpass_reg[66] clk n_327 VSS VSS VDD VDD pass[66] sky130_fd_sc_hd__dfxtp_1 
Xpass_reg[185] clk n_447 VSS VSS VDD VDD pass[185] sky130_fd_sc_hd__dfxtp_1 
Xpass_reg[67] clk n_321 VSS VSS VDD VDD pass[67] sky130_fd_sc_hd__dfxtp_1 
Xpass_reg[186] clk n_383 VSS VSS VDD VDD pass[186] sky130_fd_sc_hd__dfxtp_1 
Xpass_reg[187] clk n_318 VSS VSS VDD VDD pass[187] sky130_fd_sc_hd__dfxtp_1 
Xpass_reg[8] clk n_319 VSS VSS VDD VDD pass[8] sky130_fd_sc_hd__dfxtp_1 
Xpass_reg[25] clk n_439 VSS VSS VDD VDD pass[25] sky130_fd_sc_hd__dfxtp_1 
Xpass_reg[68] clk n_317 VSS VSS VDD VDD pass[68] sky130_fd_sc_hd__dfxtp_1 
Xpass_reg[188] clk n_316 VSS VSS VDD VDD pass[188] sky130_fd_sc_hd__dfxtp_1 
Xpass_reg[189] clk n_315 VSS VSS VDD VDD pass[189] sky130_fd_sc_hd__dfxtp_1 
Xpass_reg[21] clk n_469 VSS VSS VDD VDD pass[21] sky130_fd_sc_hd__dfxtp_1 
Xpass_reg[190] clk n_313 VSS VSS VDD VDD pass[190] sky130_fd_sc_hd__dfxtp_1 
Xpass_reg[9] clk n_308 VSS VSS VDD VDD pass[9] sky130_fd_sc_hd__dfxtp_1 
Xpass_reg[69] clk n_314 VSS VSS VDD VDD pass[69] sky130_fd_sc_hd__dfxtp_1 
Xpass_reg[251] clk n_445 VSS VSS VDD VDD pass[251] sky130_fd_sc_hd__dfxtp_1 
Xpass_reg[70] clk n_311 VSS VSS VDD VDD pass[70] sky130_fd_sc_hd__dfxtp_1 
Xpass_reg[191] clk n_312 VSS VSS VDD VDD pass[191] sky130_fd_sc_hd__dfxtp_1 
Xpass_reg[192] clk n_310 VSS VSS VDD VDD pass[192] sky130_fd_sc_hd__dfxtp_1 
Xpass_reg[193] clk n_309 VSS VSS VDD VDD pass[193] sky130_fd_sc_hd__dfxtp_1 
Xpass_reg[71] clk n_307 VSS VSS VDD VDD pass[71] sky130_fd_sc_hd__dfxtp_1 
Xpass_reg[194] clk n_306 VSS VSS VDD VDD pass[194] sky130_fd_sc_hd__dfxtp_1 
Xpass_reg[195] clk n_305 VSS VSS VDD VDD pass[195] sky130_fd_sc_hd__dfxtp_1 
Xpass_reg[246] clk n_456 VSS VSS VDD VDD pass[246] sky130_fd_sc_hd__dfxtp_1 
Xpass_reg[72] clk n_301 VSS VSS VDD VDD pass[72] sky130_fd_sc_hd__dfxtp_1 
Xpass_reg[196] clk n_389 VSS VSS VDD VDD pass[196] sky130_fd_sc_hd__dfxtp_1 
Xpass_reg[10] clk n_300 VSS VSS VDD VDD pass[10] sky130_fd_sc_hd__dfxtp_1 
Xpass_reg[96] clk n_463 VSS VSS VDD VDD pass[96] sky130_fd_sc_hd__dfxtp_1 
Xpass_reg[73] clk n_295 VSS VSS VDD VDD pass[73] sky130_fd_sc_hd__dfxtp_1 
Xpass_reg[197] clk n_296 VSS VSS VDD VDD pass[197] sky130_fd_sc_hd__dfxtp_1 
Xpass_reg[198] clk n_294 VSS VSS VDD VDD pass[198] sky130_fd_sc_hd__dfxtp_1 
Xpass_reg[22] clk n_452 VSS VSS VDD VDD pass[22] sky130_fd_sc_hd__dfxtp_1 
Xpass_reg[199] clk n_293 VSS VSS VDD VDD pass[199] sky130_fd_sc_hd__dfxtp_1 
Xpass_reg[200] clk n_292 VSS VSS VDD VDD pass[200] sky130_fd_sc_hd__dfxtp_1 
Xpass_reg[11] clk n_298 VSS VSS VDD VDD pass[11] sky130_fd_sc_hd__dfxtp_1 
Xpass_reg[74] clk n_299 VSS VSS VDD VDD pass[74] sky130_fd_sc_hd__dfxtp_1 
Xpass_reg[201] clk n_302 VSS VSS VDD VDD pass[201] sky130_fd_sc_hd__dfxtp_1 
Xpass_reg[75] clk n_291 VSS VSS VDD VDD pass[75] sky130_fd_sc_hd__dfxtp_1 
Xpass_reg[202] clk n_304 VSS VSS VDD VDD pass[202] sky130_fd_sc_hd__dfxtp_1 
Xpass_reg[237] clk n_475 VSS VSS VDD VDD pass[237] sky130_fd_sc_hd__dfxtp_1 
Xpass_reg[203] clk n_290 VSS VSS VDD VDD pass[203] sky130_fd_sc_hd__dfxtp_1 
Xpass_reg[13] clk n_273 VSS VSS VDD VDD pass[13] sky130_fd_sc_hd__dfxtp_1 
Xpass_reg[14] clk n_268 VSS VSS VDD VDD pass[14] sky130_fd_sc_hd__dfxtp_1 
Xpass_reg[235] clk n_478 VSS VSS VDD VDD pass[235] sky130_fd_sc_hd__dfxtp_1 
Xpass_reg[76] clk n_286 VSS VSS VDD VDD pass[76] sky130_fd_sc_hd__dfxtp_1 
Xpass_reg[204] clk n_502 VSS VSS VDD VDD pass[204] sky130_fd_sc_hd__dfxtp_1 
Xpass_reg[205] clk n_285 VSS VSS VDD VDD pass[205] sky130_fd_sc_hd__dfxtp_1 
Xpass_reg[90] clk n_486 VSS VSS VDD VDD pass[90] sky130_fd_sc_hd__dfxtp_1 
Xpass_reg[206] clk n_284 VSS VSS VDD VDD pass[206] sky130_fd_sc_hd__dfxtp_1 
Xpass_reg[77] clk n_287 VSS VSS VDD VDD pass[77] sky130_fd_sc_hd__dfxtp_1 
Xpass_reg[207] clk n_283 VSS VSS VDD VDD pass[207] sky130_fd_sc_hd__dfxtp_1 
Xpass_reg[208] clk n_281 VSS VSS VDD VDD pass[208] sky130_fd_sc_hd__dfxtp_1 
Xpass_reg[78] clk n_282 VSS VSS VDD VDD pass[78] sky130_fd_sc_hd__dfxtp_1 
Xpass_reg[209] clk n_280 VSS VSS VDD VDD pass[209] sky130_fd_sc_hd__dfxtp_1 
Xpass_reg[79] clk n_279 VSS VSS VDD VDD pass[79] sky130_fd_sc_hd__dfxtp_1 
Xpass_reg[228] clk n_479 VSS VSS VDD VDD pass[228] sky130_fd_sc_hd__dfxtp_1 
Xpass_reg[80] clk n_276 VSS VSS VDD VDD pass[80] sky130_fd_sc_hd__dfxtp_1 
Xpass_reg[210] clk n_278 VSS VSS VDD VDD pass[210] sky130_fd_sc_hd__dfxtp_1 
Xpass_reg[211] clk n_275 VSS VSS VDD VDD pass[211] sky130_fd_sc_hd__dfxtp_1 
Xpass_reg[87] clk n_503 VSS VSS VDD VDD pass[87] sky130_fd_sc_hd__dfxtp_1 
Xpass_reg[212] clk n_274 VSS VSS VDD VDD pass[212] sky130_fd_sc_hd__dfxtp_1 
Xg4587 pass[255] VSS VSS VDD VDD out[255] sky130_fd_sc_hd__buf_8 
Xpass_reg[213] clk n_270 VSS VSS VDD VDD pass[213] sky130_fd_sc_hd__dfxtp_1 
Xpass_reg[223] clk n_509 VSS VSS VDD VDD pass[223] sky130_fd_sc_hd__dfxtp_1 
Xpass_reg[214] clk n_271 VSS VSS VDD VDD pass[214] sky130_fd_sc_hd__dfxtp_1 
Xpass_reg[215] clk n_269 VSS VSS VDD VDD pass[215] sky130_fd_sc_hd__dfxtp_1 
Xpass_reg[216] clk n_404 VSS VSS VDD VDD pass[216] sky130_fd_sc_hd__dfxtp_1 
Xpass_reg[15] clk n_267 VSS VSS VDD VDD pass[15] sky130_fd_sc_hd__dfxtp_1 
Xpass_reg[16] clk n_504 VSS VSS VDD VDD pass[16] sky130_fd_sc_hd__dfxtp_1 
Xpass_reg[82] clk n_266 VSS VSS VDD VDD pass[82] sky130_fd_sc_hd__dfxtp_1 
Xpass_reg[217] clk n_264 VSS VSS VDD VDD pass[217] sky130_fd_sc_hd__dfxtp_1 
Xpass_reg[83] clk n_263 VSS VSS VDD VDD pass[83] sky130_fd_sc_hd__dfxtp_1 
Xpass_reg[218] clk n_262 VSS VSS VDD VDD pass[218] sky130_fd_sc_hd__dfxtp_1 
Xpass_reg[219] clk n_261 VSS VSS VDD VDD pass[219] sky130_fd_sc_hd__dfxtp_1 
Xpass_reg[84] clk n_260 VSS VSS VDD VDD pass[84] sky130_fd_sc_hd__dfxtp_1 
Xpass_reg[220] clk n_322 VSS VSS VDD VDD pass[220] sky130_fd_sc_hd__dfxtp_1 
Xpass_reg[221] clk n_323 VSS VSS VDD VDD pass[221] sky130_fd_sc_hd__dfxtp_1 
Xpass_reg[222] clk n_289 VSS VSS VDD VDD pass[222] sky130_fd_sc_hd__dfxtp_1 
Xpass_reg[17] clk n_499 VSS VSS VDD VDD pass[17] sky130_fd_sc_hd__dfxtp_1 
Xpass_reg[85] clk n_258 VSS VSS VDD VDD pass[85] sky130_fd_sc_hd__dfxtp_1 
Xpass_reg[224] clk n_507 VSS VSS VDD VDD pass[224] sky130_fd_sc_hd__dfxtp_1 
Xpass_reg[86] clk n_508 VSS VSS VDD VDD pass[86] sky130_fd_sc_hd__dfxtp_1 
Xpass_reg[225] clk n_505 VSS VSS VDD VDD pass[225] sky130_fd_sc_hd__dfxtp_1 
Xpass_reg[3] clk n_417 VSS VSS VDD VDD pass[3] sky130_fd_sc_hd__dfxtp_1 
Xpass_reg[110] clk n_419 VSS VSS VDD VDD pass[110] sky130_fd_sc_hd__dfxtp_1 
Xpass_reg[88] clk n_494 VSS VSS VDD VDD pass[88] sky130_fd_sc_hd__dfxtp_1 
Xpass_reg[1] clk n_435 VSS VSS VDD VDD pass[1] sky130_fd_sc_hd__dfxtp_1 
Xpass_reg[19] clk n_490 VSS VSS VDD VDD pass[19] sky130_fd_sc_hd__dfxtp_1 
Xpass_reg[89] clk n_487 VSS VSS VDD VDD pass[89] sky130_fd_sc_hd__dfxtp_1 
Xpass_reg[229] clk n_493 VSS VSS VDD VDD pass[229] sky130_fd_sc_hd__dfxtp_1 
Xpass_reg[230] clk n_491 VSS VSS VDD VDD pass[230] sky130_fd_sc_hd__dfxtp_1 
Xpass_reg[231] clk n_488 VSS VSS VDD VDD pass[231] sky130_fd_sc_hd__dfxtp_1 
Xpass_reg[232] clk n_506 VSS VSS VDD VDD pass[232] sky130_fd_sc_hd__dfxtp_1 
Xpass_reg[233] clk n_484 VSS VSS VDD VDD pass[233] sky130_fd_sc_hd__dfxtp_1 
Xpass_reg[91] clk n_481 VSS VSS VDD VDD pass[91] sky130_fd_sc_hd__dfxtp_1 
Xpass_reg[234] clk n_265 VSS VSS VDD VDD pass[234] sky130_fd_sc_hd__dfxtp_1 
Xpass_reg[20] clk n_482 VSS VSS VDD VDD pass[20] sky130_fd_sc_hd__dfxtp_1 
Xpass_reg[92] clk n_476 VSS VSS VDD VDD pass[92] sky130_fd_sc_hd__dfxtp_1 
Xpass_reg[236] clk n_277 VSS VSS VDD VDD pass[236] sky130_fd_sc_hd__dfxtp_1 
Xpass_reg[238] clk n_473 VSS VSS VDD VDD pass[238] sky130_fd_sc_hd__dfxtp_1 
Xpass_reg[93] clk n_474 VSS VSS VDD VDD pass[93] sky130_fd_sc_hd__dfxtp_1 
Xpass_reg[239] clk n_470 VSS VSS VDD VDD pass[239] sky130_fd_sc_hd__dfxtp_1 
Xpass_reg[240] clk n_297 VSS VSS VDD VDD pass[240] sky130_fd_sc_hd__dfxtp_1 
Xpass_reg[94] clk n_467 VSS VSS VDD VDD pass[94] sky130_fd_sc_hd__dfxtp_1 
Xpass_reg[241] clk n_466 VSS VSS VDD VDD pass[241] sky130_fd_sc_hd__dfxtp_1 
Xpass_reg[2] clk n_501 VSS VSS VDD VDD pass[2] sky130_fd_sc_hd__dfxtp_1 
Xpass_reg[95] clk n_464 VSS VSS VDD VDD pass[95] sky130_fd_sc_hd__dfxtp_1 
Xpass_reg[242] clk n_303 VSS VSS VDD VDD pass[242] sky130_fd_sc_hd__dfxtp_1 
Xpass_reg[243] clk n_462 VSS VSS VDD VDD pass[243] sky130_fd_sc_hd__dfxtp_1 
Xpass_reg[244] clk n_460 VSS VSS VDD VDD pass[244] sky130_fd_sc_hd__dfxtp_1 
Xpass_reg[97] clk n_458 VSS VSS VDD VDD pass[97] sky130_fd_sc_hd__dfxtp_1 
Xpass_reg[245] clk n_459 VSS VSS VDD VDD pass[245] sky130_fd_sc_hd__dfxtp_1 
Xpass_reg[247] clk n_455 VSS VSS VDD VDD pass[247] sky130_fd_sc_hd__dfxtp_1 
Xpass_reg[248] clk n_375 VSS VSS VDD VDD pass[248] sky130_fd_sc_hd__dfxtp_1 
Xpass_reg[12] clk n_288 VSS VSS VDD VDD pass[12] sky130_fd_sc_hd__dfxtp_1 
Xpass_reg[98] clk n_393 VSS VSS VDD VDD pass[98] sky130_fd_sc_hd__dfxtp_1 
Xpass_reg[249] clk n_450 VSS VSS VDD VDD pass[249] sky130_fd_sc_hd__dfxtp_1 
Xpass_reg[99] clk n_446 VSS VSS VDD VDD pass[99] sky130_fd_sc_hd__dfxtp_1 
Xpass_reg[250] clk n_409 VSS VSS VDD VDD pass[250] sky130_fd_sc_hd__dfxtp_1 
Xpass_reg[18] clk n_497 VSS VSS VDD VDD pass[18] sky130_fd_sc_hd__dfxtp_1 
Xpass_reg[100] clk n_443 VSS VSS VDD VDD pass[100] sky130_fd_sc_hd__dfxtp_1 
Xpass_reg[252] clk n_444 VSS VSS VDD VDD pass[252] sky130_fd_sc_hd__dfxtp_1 
Xpass_reg[24] clk n_449 VSS VSS VDD VDD pass[24] sky130_fd_sc_hd__dfxtp_1 
Xpass_reg[253] clk n_442 VSS VSS VDD VDD pass[253] sky130_fd_sc_hd__dfxtp_1 
Xpass_reg[81] clk n_272 VSS VSS VDD VDD pass[81] sky130_fd_sc_hd__dfxtp_1 
Xpass_reg[26] clk n_433 VSS VSS VDD VDD pass[26] sky130_fd_sc_hd__dfxtp_1 
Xpass_reg[27] clk n_428 VSS VSS VDD VDD pass[27] sky130_fd_sc_hd__dfxtp_1 
Xpass_reg[101] clk n_440 VSS VSS VDD VDD pass[101] sky130_fd_sc_hd__dfxtp_1 
Xpass_reg[102] clk n_438 VSS VSS VDD VDD pass[102] sky130_fd_sc_hd__dfxtp_1 
Xpass_reg[103] clk n_436 VSS VSS VDD VDD pass[103] sky130_fd_sc_hd__dfxtp_1 
Xpass_reg[104] clk n_434 VSS VSS VDD VDD pass[104] sky130_fd_sc_hd__dfxtp_1 
Xpass_reg[105] clk n_431 VSS VSS VDD VDD pass[105] sky130_fd_sc_hd__dfxtp_1 
Xpass_reg[107] clk n_427 VSS VSS VDD VDD pass[107] sky130_fd_sc_hd__dfxtp_1 
Xpass_reg[28] clk n_426 VSS VSS VDD VDD pass[28] sky130_fd_sc_hd__dfxtp_1 
Xpass_reg[108] clk n_425 VSS VSS VDD VDD pass[108] sky130_fd_sc_hd__dfxtp_1 
Xpass_reg[227] clk n_498 VSS VSS VDD VDD pass[227] sky130_fd_sc_hd__dfxtp_1 
Xpass_reg[29] clk n_422 VSS VSS VDD VDD pass[29] sky130_fd_sc_hd__dfxtp_1 
Xpass_reg[111] clk n_418 VSS VSS VDD VDD pass[111] sky130_fd_sc_hd__dfxtp_1 
Xpass_reg[30] clk n_416 VSS VSS VDD VDD pass[30] sky130_fd_sc_hd__dfxtp_1 
Xpass_reg[113] clk n_414 VSS VSS VDD VDD pass[113] sky130_fd_sc_hd__dfxtp_1 
Xpass_reg[31] clk n_412 VSS VSS VDD VDD pass[31] sky130_fd_sc_hd__dfxtp_1 
Xpass_reg[32] clk n_408 VSS VSS VDD VDD pass[32] sky130_fd_sc_hd__dfxtp_1 
Xpass_reg[114] clk n_411 VSS VSS VDD VDD pass[114] sky130_fd_sc_hd__dfxtp_1 
Xpass_reg[115] clk n_410 VSS VSS VDD VDD pass[115] sky130_fd_sc_hd__dfxtp_1 
Xpass_reg[116] clk n_407 VSS VSS VDD VDD pass[116] sky130_fd_sc_hd__dfxtp_1 
Xpass_reg[117] clk n_403 VSS VSS VDD VDD pass[117] sky130_fd_sc_hd__dfxtp_1 
Xpass_reg[118] clk n_402 VSS VSS VDD VDD pass[118] sky130_fd_sc_hd__dfxtp_1 
Xpass_reg[119] clk n_401 VSS VSS VDD VDD pass[119] sky130_fd_sc_hd__dfxtp_1 
Xpass_reg[34] clk n_397 VSS VSS VDD VDD pass[34] sky130_fd_sc_hd__dfxtp_1 
Xpass_reg[35] clk n_391 VSS VSS VDD VDD pass[35] sky130_fd_sc_hd__dfxtp_1 
Xpass_reg[121] clk n_394 VSS VSS VDD VDD pass[121] sky130_fd_sc_hd__dfxtp_1 
Xpass_reg[123] clk n_390 VSS VSS VDD VDD pass[123] sky130_fd_sc_hd__dfxtp_1 
Xpass_reg[36] clk n_388 VSS VSS VDD VDD pass[36] sky130_fd_sc_hd__dfxtp_1 
Xpass_reg[124] clk n_386 VSS VSS VDD VDD pass[124] sky130_fd_sc_hd__dfxtp_1 
Xpass_reg[125] clk n_385 VSS VSS VDD VDD pass[125] sky130_fd_sc_hd__dfxtp_1 
Xpass_reg[126] clk n_382 VSS VSS VDD VDD pass[126] sky130_fd_sc_hd__dfxtp_1 
Xpass_reg[37] clk n_320 VSS VSS VDD VDD pass[37] sky130_fd_sc_hd__dfxtp_1 
Xpass_reg[38] clk n_368 VSS VSS VDD VDD pass[38] sky130_fd_sc_hd__dfxtp_1 
Xpass_reg[127] clk n_380 VSS VSS VDD VDD pass[127] sky130_fd_sc_hd__dfxtp_1 
Xpass_reg[128] clk n_379 VSS VSS VDD VDD pass[128] sky130_fd_sc_hd__dfxtp_1 
Xpass_reg[129] clk n_377 VSS VSS VDD VDD pass[129] sky130_fd_sc_hd__dfxtp_1 
Xpass_reg[130] clk n_374 VSS VSS VDD VDD pass[130] sky130_fd_sc_hd__dfxtp_1 
Xpass_reg[131] clk n_371 VSS VSS VDD VDD pass[131] sky130_fd_sc_hd__dfxtp_1 
Xpass_reg[132] clk n_370 VSS VSS VDD VDD pass[132] sky130_fd_sc_hd__dfxtp_1 
Xpass_reg[133] clk n_367 VSS VSS VDD VDD pass[133] sky130_fd_sc_hd__dfxtp_1 
Xpass_reg[134] clk n_366 VSS VSS VDD VDD pass[134] sky130_fd_sc_hd__dfxtp_1 
Xpass_reg[135] clk n_363 VSS VSS VDD VDD pass[135] sky130_fd_sc_hd__dfxtp_1 
Xpass_reg[136] clk n_360 VSS VSS VDD VDD pass[136] sky130_fd_sc_hd__dfxtp_1 
Xpass_reg[42] clk n_362 VSS VSS VDD VDD pass[42] sky130_fd_sc_hd__dfxtp_1 
Xpass_reg[137] clk n_359 VSS VSS VDD VDD pass[137] sky130_fd_sc_hd__dfxtp_1 
Xpass_reg[43] clk n_356 VSS VSS VDD VDD pass[43] sky130_fd_sc_hd__dfxtp_1 
Xpass_reg[139] clk n_354 VSS VSS VDD VDD pass[139] sky130_fd_sc_hd__dfxtp_1 
Xpass_reg[44] clk n_353 VSS VSS VDD VDD pass[44] sky130_fd_sc_hd__dfxtp_1 
Xpass_reg[45] clk n_340 VSS VSS VDD VDD pass[45] sky130_fd_sc_hd__dfxtp_1 
Xpass_reg[141] clk n_349 VSS VSS VDD VDD pass[141] sky130_fd_sc_hd__dfxtp_1 
Xpass_reg[142] clk n_347 VSS VSS VDD VDD pass[142] sky130_fd_sc_hd__dfxtp_1 
Xpass_reg[46] clk n_344 VSS VSS VDD VDD pass[46] sky130_fd_sc_hd__dfxtp_1 
Xpass_reg[144] clk n_343 VSS VSS VDD VDD pass[144] sky130_fd_sc_hd__dfxtp_1 
Xpass_reg[145] clk n_342 VSS VSS VDD VDD pass[145] sky130_fd_sc_hd__dfxtp_1 
Xpass_reg[47] clk n_338 VSS VSS VDD VDD pass[47] sky130_fd_sc_hd__dfxtp_1 
Xpass_reg[48] clk n_332 VSS VSS VDD VDD pass[48] sky130_fd_sc_hd__dfxtp_1 
Xpass_reg[146] clk n_337 VSS VSS VDD VDD pass[146] sky130_fd_sc_hd__dfxtp_1 
Xpass_reg[147] clk n_335 VSS VSS VDD VDD pass[147] sky130_fd_sc_hd__dfxtp_1 
Xpass_reg[148] clk n_334 VSS VSS VDD VDD pass[148] sky130_fd_sc_hd__dfxtp_1 
Xpass_reg[149] clk n_331 VSS VSS VDD VDD pass[149] sky130_fd_sc_hd__dfxtp_1 
Xpass_reg[150] clk n_330 VSS VSS VDD VDD pass[150] sky130_fd_sc_hd__dfxtp_1 
Xpass_reg[151] clk n_329 VSS VSS VDD VDD pass[151] sky130_fd_sc_hd__dfxtp_1 
Xpass_reg[23] clk n_451 VSS VSS VDD VDD pass[23] sky130_fd_sc_hd__dfxtp_1 
Xpass_reg[255] clk n_257 VSS VSS VDD VDD pass[255] sky130_fd_sc_hd__dfxtp_1 
Xg4609__5107 pass[165] n_914 pass[163] n_521 n_713 VSS VSS VDD VDD n_511 
+ sky130_fd_sc_hd__a221o_1 
Xg4718__6260 pass[224] n_853 pass[222] n_626 n_763 VSS VSS VDD VDD n_509 
+ sky130_fd_sc_hd__a221o_1 
Xg4719__4319 pass[87] n_872 pass[85] n_632 n_713 VSS VSS VDD VDD n_508 
+ sky130_fd_sc_hd__a221o_1 
Xg4720__8428 pass[225] n_923 pass[223] n_632 n_680 VSS VSS VDD VDD n_507 
+ sky130_fd_sc_hd__a221o_1 
Xg4721__5526 pass[233] n_853 pass[231] n_613 n_763 VSS VSS VDD VDD n_506 
+ sky130_fd_sc_hd__a221o_1 
Xg4722__6783 pass[226] n_800 pass[224] n_565 n_713 VSS VSS VDD VDD n_505 
+ sky130_fd_sc_hd__a221o_1 
Xg4589__3680 pass[17] n_866 pass[15] n_632 n_730 VSS VSS VDD VDD n_504 
+ sky130_fd_sc_hd__a221o_1 
Xg4723__1617 pass[88] n_805 pass[86] n_569 n_697 VSS VSS VDD VDD n_503 
+ sky130_fd_sc_hd__a221o_1 
Xg4590__2802 pass[205] n_862 pass[203] n_622 n_713 VSS VSS VDD VDD n_502 
+ sky130_fd_sc_hd__a221o_1 
Xg4591__1705 pass[3] n_800 pass[1] n_607 n_680 VSS VSS VDD VDD n_501 
+ sky130_fd_sc_hd__a221o_1 
Xg4724__5122 pass[227] n_853 pass[225] n_613 n_746 VSS VSS VDD VDD n_500 
+ sky130_fd_sc_hd__a221o_1 
Xg4725__8246 pass[18] n_800 pass[16] n_541 n_680 VSS VSS VDD VDD n_499 
+ sky130_fd_sc_hd__a221o_1 
Xg4726__7098 pass[228] n_897 pass[226] n_560 n_713 VSS VSS VDD VDD n_498 
+ sky130_fd_sc_hd__a221o_1 
Xg4727__6131 pass[19] n_923 pass[17] n_649 n_779 VSS VSS VDD VDD n_497 
+ sky130_fd_sc_hd__a221o_1 
Xg4592__1881 pass[154] n_914 pass[152] n_649 n_713 VSS VSS VDD VDD n_496 
+ sky130_fd_sc_hd__a221o_1 
Xg4593__5115 pass[155] n_889 pass[153] n_640 n_779 VSS VSS VDD VDD n_495 
+ sky130_fd_sc_hd__a221o_1 
Xg4728__7482 pass[89] n_796 pass[87] n_546 n_697 VSS VSS VDD VDD n_494 
+ sky130_fd_sc_hd__a221o_1 
Xg4729__4733 pass[230] n_862 pass[228] n_649 n_680 VSS VSS VDD VDD n_493 
+ sky130_fd_sc_hd__a221o_1 
Xg4594__6161 pass[52] n_800 pass[50] n_607 n_730 VSS VSS VDD VDD n_492 
+ sky130_fd_sc_hd__a221o_1 
Xg4730__9315 pass[231] n_889 pass[229] n_649 n_664 VSS VSS VDD VDD n_491 
+ sky130_fd_sc_hd__a221o_1 
Xg4731__9945 pass[20] n_838 pass[18] n_607 n_779 VSS VSS VDD VDD n_490 
+ sky130_fd_sc_hd__a221o_1 
Xg4595__2883 pass[156] n_857 pass[154] n_607 n_713 VSS VSS VDD VDD n_489 
+ sky130_fd_sc_hd__a221o_1 
Xg4732__2346 pass[232] n_838 pass[230] n_632 n_746 VSS VSS VDD VDD n_488 
+ sky130_fd_sc_hd__a221o_1 
Xg4733__1666 pass[90] n_805 pass[88] n_632 n_763 VSS VSS VDD VDD n_487 
+ sky130_fd_sc_hd__a221o_1 
Xg4734__7410 pass[91] n_857 pass[89] n_541 n_779 VSS VSS VDD VDD n_486 
+ sky130_fd_sc_hd__a221o_1 
Xg4596__6417 pass[53] n_914 pass[51] n_521 n_697 VSS VSS VDD VDD n_485 
+ sky130_fd_sc_hd__a221o_1 
Xg4735__5477 pass[234] n_923 pass[232] n_560 n_746 VSS VSS VDD VDD n_484 
+ sky130_fd_sc_hd__a221o_1 
Xg4597__2398 pass[157] n_914 pass[155] n_617 n_697 VSS VSS VDD VDD n_483 
+ sky130_fd_sc_hd__a221o_1 
Xg4736__5107 pass[21] n_796 pass[19] n_546 n_779 VSS VSS VDD VDD n_482 
+ sky130_fd_sc_hd__a221o_1 
Xg4737__6260 pass[92] n_866 pass[90] n_617 n_779 VSS VSS VDD VDD n_481 
+ sky130_fd_sc_hd__a221o_1 
Xg4598__4319 pass[158] n_838 pass[156] n_649 n_730 VSS VSS VDD VDD n_480 
+ sky130_fd_sc_hd__a221o_1 
Xg4738__8428 pass[229] n_857 pass[227] n_521 n_730 VSS VSS VDD VDD n_479 
+ sky130_fd_sc_hd__a221o_1 
Xg4739__5526 pass[236] n_834 pass[234] n_565 n_763 VSS VSS VDD VDD n_478 
+ sky130_fd_sc_hd__a221o_1 
Xg4599__6783 pass[54] n_923 pass[52] n_584 n_697 VSS VSS VDD VDD n_477 
+ sky130_fd_sc_hd__a221o_1 
Xg4740__3680 pass[93] n_843 pass[91] n_575 n_680 VSS VSS VDD VDD n_476 
+ sky130_fd_sc_hd__a221o_1 
Xg4741__1617 pass[238] n_914 pass[236] n_649 n_746 VSS VSS VDD VDD n_475 
+ sky130_fd_sc_hd__a221o_1 
Xg4742__2802 pass[94] n_847 pass[92] n_649 n_697 VSS VSS VDD VDD n_474 
+ sky130_fd_sc_hd__a221o_1 
Xg4743__1705 pass[239] n_906 pass[237] n_613 n_664 VSS VSS VDD VDD n_473 
+ sky130_fd_sc_hd__a221o_1 
Xg4600__5122 pass[159] n_847 pass[157] n_640 n_680 VSS VSS VDD VDD n_472 
+ sky130_fd_sc_hd__a221o_1 
Xg4601__8246 pass[160] n_809 pass[158] n_603 n_697 VSS VSS VDD VDD n_471 
+ sky130_fd_sc_hd__a221o_1 
Xg4744__7098 pass[240] n_906 pass[238] n_526 n_713 VSS VSS VDD VDD n_470 
+ sky130_fd_sc_hd__a221o_1 
Xg4745__6131 pass[22] n_847 pass[20] n_603 n_664 VSS VSS VDD VDD n_469 
+ sky130_fd_sc_hd__a221o_1 
Xg4602__1881 pass[161] n_872 pass[159] n_640 n_779 VSS VSS VDD VDD n_468 
+ sky130_fd_sc_hd__a221o_1 
Xg4746__5115 pass[95] n_847 pass[93] n_607 n_730 VSS VSS VDD VDD n_467 
+ sky130_fd_sc_hd__a221o_1 
Xg4747__7482 pass[242] n_834 pass[240] n_607 n_779 VSS VSS VDD VDD n_466 
+ sky130_fd_sc_hd__a221o_1 
Xg4603__4733 pass[162] n_906 pass[160] n_626 n_680 VSS VSS VDD VDD n_465 
+ sky130_fd_sc_hd__a221o_1 
Xg4748__6161 pass[96] n_809 pass[94] n_632 n_746 VSS VSS VDD VDD n_464 
+ sky130_fd_sc_hd__a221o_1 
Xg4749__9315 pass[97] n_906 pass[95] n_517 n_746 VSS VSS VDD VDD n_463 
+ sky130_fd_sc_hd__a221o_1 
Xg4750__9945 pass[244] n_906 pass[242] n_575 n_763 VSS VSS VDD VDD n_462 
+ sky130_fd_sc_hd__a221o_1 
Xg4605__2883 pass[56] n_897 pass[54] n_649 n_730 VSS VSS VDD VDD n_461 
+ sky130_fd_sc_hd__a221o_1 
Xg4751__2346 pass[245] n_843 pass[243] n_575 n_779 VSS VSS VDD VDD n_460 
+ sky130_fd_sc_hd__a221o_1 
Xg4752__1666 pass[246] n_897 pass[244] n_541 n_697 VSS VSS VDD VDD n_459 
+ sky130_fd_sc_hd__a221o_1 
Xg4753__7410 pass[98] n_923 pass[96] n_521 n_779 VSS VSS VDD VDD n_458 
+ sky130_fd_sc_hd__a221o_1 
Xg4606__6417 pass[163] n_843 pass[161] n_579 n_730 VSS VSS VDD VDD n_457 
+ sky130_fd_sc_hd__a221o_1 
Xg4754__5477 pass[247] n_824 pass[245] n_565 n_746 VSS VSS VDD VDD n_456 
+ sky130_fd_sc_hd__a221o_1 
Xg4755__2398 pass[248] n_889 pass[246] n_588 n_779 VSS VSS VDD VDD n_455 
+ sky130_fd_sc_hd__a221o_1 
Xg4604__5107 pass[55] n_897 pass[53] n_617 n_746 VSS VSS VDD VDD n_454 
+ sky130_fd_sc_hd__a221o_1 
Xg4607__6260 pass[57] n_872 pass[55] n_550 n_713 VSS VSS VDD VDD n_453 
+ sky130_fd_sc_hd__a221o_1 
Xg4756__4319 pass[23] n_889 pass[21] n_546 n_779 VSS VSS VDD VDD n_452 
+ sky130_fd_sc_hd__a221o_1 
Xg4757__8428 pass[24] n_897 pass[22] n_550 n_730 VSS VSS VDD VDD n_451 
+ sky130_fd_sc_hd__a221o_1 
Xg4758__5526 pass[250] n_843 pass[248] n_550 n_779 VSS VSS VDD VDD n_450 
+ sky130_fd_sc_hd__a221o_1 
Xg4759__6783 pass[25] n_914 pass[23] n_560 n_730 VSS VSS VDD VDD n_449 
+ sky130_fd_sc_hd__a221o_1 
Xg4608__3680 pass[164] n_824 pass[162] n_569 n_763 VSS VSS VDD VDD n_448 
+ sky130_fd_sc_hd__a221o_1 
Xg4588__1617 pass[186] n_809 pass[184] n_617 n_763 VSS VSS VDD VDD n_447 
+ sky130_fd_sc_hd__a221o_1 
Xg4760__2802 pass[100] n_828 pass[98] n_594 n_746 VSS VSS VDD VDD n_446 
+ sky130_fd_sc_hd__a221o_1 
Xg4761__1705 pass[252] n_880 pass[250] n_537 n_746 VSS VSS VDD VDD n_445 
+ sky130_fd_sc_hd__a221o_1 
Xg4610__5122 pass[253] n_880 pass[251] n_588 n_779 VSS VSS VDD VDD n_444 
+ sky130_fd_sc_hd__a221o_1 
Xg4762__8246 pass[101] n_880 pass[99] n_560 n_697 VSS VSS VDD VDD n_443 
+ sky130_fd_sc_hd__a221o_1 
Xg4763__7098 pass[254] n_815 pass[252] n_588 n_713 VSS VSS VDD VDD n_442 
+ sky130_fd_sc_hd__a221o_1 
Xg4611__6131 pass[166] n_923 pass[164] n_584 n_697 VSS VSS VDD VDD n_441 
+ sky130_fd_sc_hd__a221o_1 
Xg4764__1881 pass[102] n_815 pass[100] n_541 n_763 VSS VSS VDD VDD n_440 
+ sky130_fd_sc_hd__a221o_1 
Xg4765__5115 pass[26] n_819 pass[24] n_541 n_746 VSS VSS VDD VDD n_439 
+ sky130_fd_sc_hd__a221o_1 
Xg4766__7482 pass[103] n_923 pass[101] n_584 n_680 VSS VSS VDD VDD n_438 
+ sky130_fd_sc_hd__a221o_1 
Xg4612__4733 pass[167] n_819 pass[165] n_517 n_746 VSS VSS VDD VDD n_437 
+ sky130_fd_sc_hd__a221o_1 
Xg4767__6161 pass[104] n_815 pass[102] n_649 n_730 VSS VSS VDD VDD n_436 
+ sky130_fd_sc_hd__a221o_1 
Xg4613__9315 pass[2] n_819 pass[0] n_598 n_763 VSS VSS VDD VDD n_435 
+ sky130_fd_sc_hd__a221o_1 
Xg4768__9945 pass[105] n_828 pass[103] n_556 n_746 VSS VSS VDD VDD n_434 
+ sky130_fd_sc_hd__a221o_1 
Xg4769__2883 pass[27] n_880 pass[25] n_640 n_746 VSS VSS VDD VDD n_433 
+ sky130_fd_sc_hd__a221o_1 